
Note: No compatibility mode selected!


Circuit: ** sch_path: /home/bmott/tt_relative_path_test/xsch/tb/ringosc/ringosc_tb_mc.sch

Doing analysis at TEMP = 27.000000 and TNOM = 27.000000

Using SPARSE 1.3 as Direct Linear Solver

Initial Transient Solution
--------------------------

Node                                   Voltage
----                                   -------
x1.net1                               0.818065
out                                   0.828988
net1                                       1.8
x1.net2                               0.848631
v1#branch                         -5.35745e-05

 Reference value :  0.00000e+00 Reference value :  2.54528e-10 Reference value :  5.60728e-10 Reference value :  8.31728e-10 Reference value :  1.11393e-09 Reference value :  1.39353e-09 Reference value :  1.67313e-09 Reference value :  1.93553e-09 Reference value :  2.21483e-09 Reference value :  2.45633e-09 Reference value :  2.73283e-09 Reference value :  2.95333e-09 Reference value :  3.16423e-09 Reference value :  3.37033e-09 Reference value :  3.48023e-09 Reference value :  3.57043e-09 Reference value :  3.79203e-09 Reference value :  4.03023e-09 Reference value :  4.27913e-09 Reference value :  4.51723e-09 Reference value :  4.75983e-09
No. of Data Rows : 50008
Note: Simulation executed from .control section 


Note: No compatibility mode selected!


Circuit: ** sch_path: /home/bmott/tt_relative_path_test/xsch/tb/ringosc/ringosc_tb_mc.sch

Doing analysis at TEMP = 27.000000 and TNOM = 27.000000

Using SPARSE 1.3 as Direct Linear Solver

Initial Transient Solution
--------------------------

Node                                   Voltage
----                                   -------
x1.net1                               0.844115
out                                   0.842105
net1                                       1.8
x1.net2                               0.828502
v1#branch                           -5.493e-05

 Reference value :  0.00000e+00 Reference value :  2.00000e-15 Reference value :  8.00000e-15 Reference value :  3.20000e-14 Reference value :  1.28000e-13 Reference value :  3.28000e-13 Reference value :  9.75280e-11 Reference value :  4.24428e-10 Reference value :  6.87528e-10 Reference value :  1.04013e-09 Reference value :  1.36773e-09 Reference value :  1.72373e-09 Reference value :  2.05263e-09 Reference value :  2.38233e-09 Reference value :  2.77673e-09 Reference value :  3.08763e-09 Reference value :  3.45993e-09 Reference value :  3.82253e-09 Reference value :  4.18213e-09 Reference value :  4.51543e-09 Reference value :  4.87973e-09
No. of Data Rows : 50008
Note: Simulation executed from .control section 

