
Note: No compatibility mode selected!


Circuit: ** sch_path: /home/bmott/tt_relative_path_test/xsch/tb/ringosc/ringosc_tb_mc.sch

Doing analysis at TEMP = 27.000000 and TNOM = 27.000000

Using SPARSE 1.3 as Direct Linear Solver

Initial Transient Solution
--------------------------

Node                                   Voltage
----                                   -------
x1.net1                                0.84617
out                                   0.825564
net1                                       1.8
x1.net2                               0.854029
v1#branch                         -4.86279e-05

 Reference value :  0.00000e+00 Reference value :  2.00000e-15 Reference value :  8.00000e-15 Reference value :  1.60000e-14 Reference value :  3.20000e-14 Reference value :  6.40000e-14 Reference value :  2.28000e-13 Reference value :  3.28000e-13 Reference value :  5.28000e-13 Reference value :  8.93280e-11 Reference value :  8.94280e-11 Reference value :  9.22280e-11 Reference value :  9.24280e-11 Reference value :  9.26280e-11 Reference value :  9.28280e-11 Reference value :  9.30280e-11 Reference value :  9.31280e-11 Reference value :  9.32280e-11 Reference value :  9.34280e-11 Reference value :  9.35280e-11 Reference value :  9.37280e-11 Reference value :  9.39280e-11 Reference value :  9.40280e-11 Reference value :  9.42280e-11 Reference value :  9.43280e-11 Reference value :  9.44280e-11 Reference value :  1.03328e-10 Reference value :  1.50028e-10 Reference value :  1.72228e-10 Reference value :  1.72428e-10 Reference value :  1.77028e-10 Reference value :  1.81328e-10 Reference value :  1.81528e-10 Reference value :  1.81628e-10 Reference value :  1.81728e-10 Reference value :  1.81828e-10 Reference value :  1.81928e-10 Reference value :  1.82028e-10 Reference value :  1.82128e-10 Reference value :  1.82328e-10 Reference value :  2.06128e-10 Reference value :  2.07928e-10 Reference value :  2.08128e-10 Reference value :  2.57628e-10 Reference value :  2.79528e-10 Reference value :  2.79728e-10 Reference value :  2.79928e-10 Reference value :  3.17428e-10 Reference value :  3.17628e-10 Reference value :  3.17828e-10 Reference value :  3.20728e-10 Reference value :  3.60528e-10 Reference value :  3.66128e-10 Reference value :  3.66328e-10 Reference value :  3.66528e-10 Reference value :  3.66728e-10 Reference value :  3.66928e-10 Reference value :  3.67028e-10 Reference value :  3.67128e-10 Reference value :  3.67328e-10 Reference value :  3.67528e-10 Reference value :  3.67728e-10 Reference value :  4.00228e-10 Reference value :  4.00328e-10 Reference value :  4.00428e-10 Reference value :  4.00528e-10 Reference value :  4.00628e-10 Reference value :  4.00728e-10 Reference value :  4.00828e-10 Reference value :  4.00928e-10 Reference value :  4.01028e-10 Reference value :  4.01228e-10 Reference value :  4.01328e-10 Reference value :  4.01428e-10 Reference value :  4.01528e-10 Reference value :  4.01628e-10 Reference value :  4.01728e-10 Reference value :  4.01828e-10 Reference value :  4.03528e-10 Reference value :  4.03728e-10 Reference value :  4.03928e-10 Reference value :  4.04128e-10 Reference value :  4.05128e-10 Reference value :  4.05328e-10 Reference value :  4.05528e-10 Reference value :  4.07928e-10 Reference value :  4.28528e-10 Reference value :  4.47428e-10 Reference value :  4.70328e-10 Reference value :  4.70528e-10 Reference value :  4.70728e-10 Reference value :  4.71028e-10 Reference value :  4.71228e-10 Reference value :  4.71428e-10 Reference value :  4.71528e-10 Reference value :  4.71628e-10 Reference value :  4.71828e-10 Reference value :  4.72028e-10 Reference value :  4.72228e-10 Reference value :  4.72328e-10 Reference value :  4.72828e-10 Reference value :  4.72928e-10 Reference value :  4.73128e-10 Reference value :  4.73328e-10 Reference value :  4.73528e-10 Reference value :  4.73728e-10 Reference value :  4.79928e-10 Reference value :  4.80128e-10 Reference value :  4.82928e-10 Reference value :  4.83128e-10 Reference value :  4.83328e-10 Reference value :  4.83528e-10 Reference value :  4.83628e-10 Reference value :  4.83728e-10 Reference value :  4.83828e-10 Reference value :  4.83928e-10 Reference value :  4.84128e-10 Reference value :  4.84328e-10 Reference value :  4.84528e-10 Reference value :  4.84728e-10 Reference value :  4.84828e-10 Reference value :  4.85028e-10 Reference value :  4.85128e-10 Reference value :  4.85328e-10 Reference value :  4.85528e-10 Reference value :  4.85728e-10 Reference value :  4.85928e-10 Reference value :  4.86128e-10 Reference value :  4.86328e-10 Reference value :  5.33628e-10 Reference value :  5.33828e-10 Reference value :  5.34028e-10 Reference value :  5.34128e-10 Reference value :  5.34328e-10 Reference value :  5.34528e-10 Reference value :  5.34628e-10 Reference value :  5.45028e-10 Reference value :  6.00628e-10 Reference value :  6.17228e-10 Reference value :  6.82928e-10 Reference value :  7.73228e-10 Reference value :  7.85828e-10 Reference value :  7.86028e-10 Reference value :  8.17128e-10 Reference value :  8.17328e-10 Reference value :  8.17528e-10 Reference value :  8.17728e-10 Reference value :  8.17928e-10 Reference value :  8.18128e-10 Reference value :  8.18328e-10 Reference value :  8.18528e-10 Reference value :  8.18728e-10 Reference value :  8.18928e-10 Reference value :  8.19128e-10 Reference value :  8.19328e-10 Reference value :  8.19428e-10 Reference value :  8.19628e-10 Reference value :  8.19828e-10 Reference value :  8.20028e-10 Reference value :  8.20228e-10 Reference value :  8.20428e-10 Reference value :  8.20628e-10 Reference value :  8.20828e-10 Reference value :  8.21028e-10 Reference value :  8.22328e-10 Reference value :  8.22528e-10 Reference value :  8.22628e-10 Reference value :  8.22728e-10 Reference value :  8.22828e-10 Reference value :  8.22928e-10 Reference value :  8.23128e-10 Reference value :  8.23328e-10 Reference value :  8.23428e-10 Reference value :  8.23628e-10 Reference value :  8.23828e-10 Reference value :  8.23928e-10 Reference value :  8.24128e-10 Reference value :  8.24228e-10 Reference value :  8.24328e-10 Reference value :  8.24528e-10 Reference value :  8.24628e-10 Reference value :  8.24728e-10 Reference value :  8.30428e-10 Reference value :  8.30628e-10 Reference value :  8.30728e-10 Reference value :  8.30928e-10 Reference value :  8.31728e-10 Reference value :  8.34428e-10 Reference value :  8.34628e-10 Reference value :  8.34828e-10 Reference value :  8.35028e-10 Reference value :  8.35228e-10 Reference value :  8.35428e-10 Reference value :  8.40928e-10 Reference value :  8.41928e-10 Reference value :  8.42128e-10 Reference value :  8.48928e-10 Reference value :  8.57528e-10 Reference value :  8.62628e-10 Reference value :  8.62728e-10 Reference value :  8.62928e-10 Reference value :  8.63128e-10 Reference value :  9.03028e-10 Reference value :  9.03228e-10 Reference value :  9.03428e-10 Reference value :  9.03628e-10 Reference value :  9.17528e-10 Reference value :  9.59428e-10 Reference value :  9.59628e-10 Reference value :  9.86428e-10 Reference value :  1.00403e-09 Reference value :  1.06883e-09 Reference value :  1.19583e-09 Reference value :  1.23683e-09 Reference value :  1.23703e-09 Reference value :  1.23723e-09 Reference value :  1.23743e-09 Reference value :  1.23763e-09 Reference value :  1.23783e-09 Reference value :  1.23803e-09 Reference value :  1.24213e-09 Reference value :  1.24233e-09 Reference value :  1.24253e-09 Reference value :  1.24273e-09 Reference value :  1.24293e-09 Reference value :  1.24313e-09 Reference value :  1.24333e-09 Reference value :  1.24353e-09 Reference value :  1.24363e-09 Reference value :  1.24383e-09 Reference value :  1.24403e-09 Reference value :  1.24423e-09 Reference value :  1.24443e-09 Reference value :  1.24463e-09 Reference value :  1.25703e-09 Reference value :  1.33293e-09 Reference value :  1.33313e-09 Reference value :  1.33333e-09 Reference value :  1.33353e-09 Reference value :  1.33373e-09 Reference value :  1.33393e-09 Reference value :  1.33413e-09 Reference value :  1.33433e-09 Reference value :  1.33453e-09 Reference value :  1.33473e-09 Reference value :  1.33493e-09 Reference value :  1.33513e-09 Reference value :  1.33533e-09 Reference value :  1.33543e-09 Reference value :  1.33553e-09 Reference value :  1.33573e-09 Reference value :  1.33593e-09 Reference value :  1.34603e-09 Reference value :  1.34853e-09 Reference value :  1.34873e-09 Reference value :  1.34893e-09 Reference value :  1.34913e-09 Reference value :  1.34933e-09 Reference value :  1.34953e-09 Reference value :  1.34963e-09 Reference value :  1.34983e-09 Reference value :  1.35453e-09 Reference value :  1.35473e-09 Reference value :  1.35483e-09 Reference value :  1.35493e-09 Reference value :  1.35513e-09 Reference value :  1.37613e-09 Reference value :  1.37633e-09 Reference value :  1.41373e-09 Reference value :  1.41393e-09 Reference value :  1.41413e-09 Reference value :  1.41433e-09 Reference value :  1.44553e-09 Reference value :  1.44573e-09 Reference value :  1.44593e-09 Reference value :  1.44613e-09 Reference value :  1.44633e-09 Reference value :  1.44653e-09 Reference value :  1.44663e-09 Reference value :  1.44683e-09 Reference value :  1.44703e-09 Reference value :  1.44713e-09 Reference value :  1.44733e-09 Reference value :  1.44813e-09 Reference value :  1.50883e-09 Reference value :  1.50893e-09 Reference value :  1.50913e-09 Reference value :  1.50933e-09 Reference value :  1.50943e-09 Reference value :  1.50963e-09 Reference value :  1.50973e-09 Reference value :  1.50983e-09 Reference value :  1.50993e-09 Reference value :  1.51003e-09 Reference value :  1.51023e-09 Reference value :  1.51033e-09 Reference value :  1.51043e-09 Reference value :  1.51053e-09 Reference value :  1.51063e-09 Reference value :  1.51073e-09 Reference value :  1.51093e-09 Reference value :  1.51113e-09 Reference value :  1.51133e-09 Reference value :  1.51153e-09 Reference value :  1.51173e-09 Reference value :  1.51193e-09 Reference value :  1.51213e-09 Reference value :  1.51303e-09 Reference value :  1.55763e-09 Reference value :  1.59733e-09 Reference value :  1.59753e-09 Reference value :  1.60083e-09 Reference value :  1.62323e-09 Reference value :  1.66873e-09 Reference value :  1.67723e-09 Reference value :  1.67923e-09 Reference value :  1.67943e-09 Reference value :  1.67953e-09 Reference value :  1.67973e-09 Reference value :  1.67993e-09 Reference value :  1.68013e-09 Reference value :  1.68263e-09 Reference value :  1.68283e-09 Reference value :  1.68993e-09 Reference value :  1.69003e-09 Reference value :  1.73323e-09 Reference value :  1.73343e-09 Reference value :  1.73363e-09 Reference value :  1.73383e-09 Reference value :  1.73403e-09 Reference value :  1.73413e-09 Reference value :  1.73433e-09 Reference value :  1.73453e-09 Reference value :  1.73473e-09 Reference value :  1.73493e-09 Reference value :  1.73503e-09 Reference value :  1.73513e-09 Reference value :  1.73523e-09 Reference value :  1.73543e-09 Reference value :  1.73703e-09 Reference value :  1.73713e-09 Reference value :  1.73733e-09 Reference value :  1.73753e-09 Reference value :  1.73773e-09 Reference value :  1.73793e-09 Reference value :  1.73803e-09 Reference value :  1.73823e-09 Reference value :  1.74393e-09 Reference value :  1.74413e-09 Reference value :  1.74433e-09 Reference value :  1.74903e-09 Reference value :  1.75463e-09 Reference value :  1.75583e-09 Reference value :  1.75863e-09 Reference value :  1.75883e-09 Reference value :  1.75993e-09 Reference value :  1.76013e-09 Reference value :  1.76023e-09 Reference value :  1.76033e-09 Reference value :  1.76043e-09 Reference value :  1.76063e-09 Reference value :  1.76083e-09 Reference value :  1.76253e-09 Reference value :  1.76263e-09 Reference value :  1.76283e-09 Reference value :  1.76303e-09 Reference value :  1.82133e-09 Reference value :  1.82153e-09 Reference value :  1.82173e-09 Reference value :  1.82203e-09 Reference value :  1.82443e-09 Reference value :  1.86573e-09 Reference value :  1.86663e-09 Reference value :  1.86683e-09 Reference value :  1.86973e-09 Reference value :  1.86993e-09 Reference value :  1.87013e-09 Reference value :  1.87033e-09 Reference value :  1.87073e-09 Reference value :  1.87093e-09 Reference value :  1.87103e-09 Reference value :  1.87123e-09 Reference value :  1.87363e-09 Reference value :  1.87373e-09 Reference value :  1.87393e-09 Reference value :  1.87403e-09 Reference value :  1.87423e-09 Reference value :  1.87443e-09 Reference value :  1.87463e-09 Reference value :  1.87483e-09 Reference value :  1.87503e-09 Reference value :  1.90273e-09 Reference value :  1.90293e-09 Reference value :  1.90313e-09 Reference value :  1.90333e-09 Reference value :  1.90353e-09 Reference value :  1.90373e-09 Reference value :  1.90413e-09 Reference value :  1.95063e-09 Reference value :  1.95083e-09 Reference value :  2.00893e-09 Reference value :  2.01623e-09 Reference value :  2.01803e-09 Reference value :  2.01813e-09 Reference value :  2.02083e-09 Reference value :  2.02093e-09 Reference value :  2.02103e-09 Reference value :  2.02123e-09 Reference value :  2.02133e-09 Reference value :  2.02153e-09 Reference value :  2.08203e-09 Reference value :  2.08223e-09 Reference value :  2.08243e-09 Reference value :  2.08263e-09 Reference value :  2.08273e-09 Reference value :  2.08433e-09 Reference value :  2.08443e-09 Reference value :  2.08463e-09 Reference value :  2.12753e-09 Reference value :  2.12763e-09 Reference value :  2.12773e-09 Reference value :  2.12783e-09 Reference value :  2.12793e-09 Reference value :  2.12813e-09 Reference value :  2.14483e-09 Reference value :  2.18313e-09 Reference value :  2.18323e-09 Reference value :  2.18343e-09 Reference value :  2.18943e-09 Reference value :  2.23483e-09 Reference value :  2.23503e-09 Reference value :  2.23523e-09 Reference value :  2.23543e-09 Reference value :  2.23563e-09 Reference value :  2.23593e-09 Reference value :  2.23633e-09 Reference value :  2.23643e-09 Reference value :  2.23663e-09 Reference value :  2.25283e-09 Reference value :  2.25303e-09 Reference value :  2.25363e-09 Reference value :  2.25373e-09 Reference value :  2.25393e-09 Reference value :  2.25403e-09 Reference value :  2.25413e-09 Reference value :  2.25423e-09 Reference value :  2.25433e-09 Reference value :  2.25443e-09 Reference value :  2.25463e-09 Reference value :  2.25473e-09 Reference value :  2.25483e-09 Reference value :  2.25503e-09 Reference value :  2.25523e-09 Reference value :  2.25533e-09 Reference value :  2.25553e-09 Reference value :  2.25573e-09 Reference value :  2.25593e-09 Reference value :  2.25613e-09 Reference value :  2.25633e-09 Reference value :  2.25663e-09 Reference value :  2.27513e-09 Reference value :  2.27533e-09 Reference value :  2.27553e-09 Reference value :  2.27573e-09 Reference value :  2.27593e-09 Reference value :  2.27613e-09 Reference value :  2.27633e-09 Reference value :  2.27653e-09 Reference value :  2.27673e-09 Reference value :  2.27693e-09 Reference value :  2.29323e-09 Reference value :  2.38643e-09 Reference value :  2.43883e-09 Reference value :  2.45763e-09 Reference value :  2.51053e-09 Reference value :  2.72823e-09 Reference value :  2.83233e-09 Reference value :  2.83253e-09 Reference value :  2.83273e-09 Reference value :  2.83283e-09 Reference value :  2.83303e-09 Reference value :  2.83323e-09 Reference value :  2.83503e-09 Reference value :  2.93843e-09 Reference value :  3.13973e-09 Reference value :  3.34593e-09 Reference value :  3.44363e-09 Reference value :  3.59003e-09 Reference value :  3.79223e-09 Reference value :  3.84283e-09 Reference value :  3.88163e-09 Reference value :  3.88173e-09 Reference value :  3.88183e-09 Reference value :  3.88193e-09 Reference value :  3.88203e-09 Reference value :  3.88213e-09 Reference value :  3.88733e-09 Reference value :  3.90403e-09 Reference value :  3.91013e-09 Reference value :  3.94503e-09 Reference value :  4.14163e-09 Reference value :  4.33233e-09 Reference value :  4.52363e-09 Reference value :  4.70433e-09 Reference value :  4.83243e-09 Reference value :  4.99783e-09
No. of Data Rows : 50008
Note: Simulation executed from .control section 


Note: No compatibility mode selected!


Circuit: ** sch_path: /home/bmott/tt_relative_path_test/xsch/tb/ringosc/ringosc_tb_mc.sch

Doing analysis at TEMP = 27.000000 and TNOM = 27.000000

Using SPARSE 1.3 as Direct Linear Solver

Initial Transient Solution
--------------------------

Node                                   Voltage
----                                   -------
x1.net1                               0.836424
out                                   0.836159
net1                                       1.8
x1.net2                               0.846456
v1#branch                         -5.04883e-05

 Reference value :  0.00000e+00 Reference value :  1.26928e-10 Reference value :  3.64628e-10 Reference value :  5.38728e-10 Reference value :  7.37428e-10 Reference value :  9.37028e-10 Reference value :  1.17153e-09 Reference value :  1.39163e-09 Reference value :  1.57383e-09 Reference value :  1.76593e-09 Reference value :  1.94883e-09 Reference value :  2.12193e-09 Reference value :  2.24513e-09 Reference value :  2.32133e-09 Reference value :  2.56173e-09 Reference value :  2.75373e-09 Reference value :  2.77793e-09 Reference value :  2.79493e-09 Reference value :  2.82543e-09 Reference value :  2.82563e-09 Reference value :  2.82583e-09 Reference value :  2.82603e-09 Reference value :  2.82613e-09 Reference value :  2.82633e-09 Reference value :  2.82653e-09 Reference value :  2.82673e-09 Reference value :  2.82693e-09 Reference value :  2.82853e-09 Reference value :  2.82863e-09 Reference value :  2.82883e-09 Reference value :  2.82903e-09 Reference value :  2.82913e-09 Reference value :  2.82923e-09 Reference value :  2.82933e-09 Reference value :  2.82953e-09 Reference value :  2.82973e-09 Reference value :  2.82983e-09 Reference value :  2.82993e-09 Reference value :  2.83003e-09 Reference value :  2.83023e-09 Reference value :  2.83033e-09 Reference value :  2.83043e-09 Reference value :  2.83063e-09 Reference value :  2.83083e-09 Reference value :  2.83103e-09 Reference value :  2.83943e-09 Reference value :  2.84323e-09 Reference value :  2.85103e-09 Reference value :  2.85113e-09 Reference value :  2.85123e-09 Reference value :  2.85143e-09 Reference value :  2.85613e-09 Reference value :  2.85623e-09 Reference value :  2.85643e-09 Reference value :  2.85653e-09 Reference value :  2.85663e-09 Reference value :  2.85673e-09 Reference value :  2.85693e-09 Reference value :  2.85713e-09 Reference value :  2.85733e-09 Reference value :  2.85753e-09 Reference value :  2.85773e-09 Reference value :  2.88753e-09 Reference value :  2.93433e-09 Reference value :  2.93553e-09 Reference value :  2.93573e-09 Reference value :  2.93593e-09 Reference value :  2.93763e-09 Reference value :  3.02833e-09 Reference value :  3.02853e-09 Reference value :  3.02873e-09 Reference value :  3.02893e-09 Reference value :  3.02913e-09 Reference value :  3.02933e-09 Reference value :  3.04463e-09 Reference value :  3.05843e-09 Reference value :  3.05863e-09 Reference value :  3.06123e-09 Reference value :  3.06133e-09 Reference value :  3.06143e-09 Reference value :  3.06163e-09 Reference value :  3.06183e-09 Reference value :  3.06203e-09 Reference value :  3.06283e-09 Reference value :  3.06303e-09 Reference value :  3.07403e-09 Reference value :  3.13583e-09 Reference value :  3.14253e-09 Reference value :  3.14273e-09 Reference value :  3.14293e-09 Reference value :  3.14313e-09 Reference value :  3.14323e-09 Reference value :  3.14343e-09 Reference value :  3.14363e-09 Reference value :  3.14383e-09 Reference value :  3.14403e-09 Reference value :  3.14423e-09 Reference value :  3.14433e-09 Reference value :  3.14453e-09 Reference value :  3.14473e-09 Reference value :  3.17373e-09 Reference value :  3.17393e-09 Reference value :  3.20763e-09 Reference value :  3.22433e-09 Reference value :  3.22453e-09 Reference value :  3.22733e-09 Reference value :  3.23293e-09 Reference value :  3.23323e-09 Reference value :  3.23403e-09 Reference value :  3.27343e-09 Reference value :  3.27363e-09 Reference value :  3.27383e-09 Reference value :  3.27433e-09 Reference value :  3.27453e-09 Reference value :  3.27473e-09 Reference value :  3.27493e-09 Reference value :  3.27513e-09 Reference value :  3.27733e-09 Reference value :  3.27783e-09 Reference value :  3.27803e-09 Reference value :  3.27813e-09 Reference value :  3.27833e-09 Reference value :  3.27853e-09 Reference value :  3.27873e-09 Reference value :  3.27883e-09 Reference value :  3.27903e-09 Reference value :  3.27913e-09 Reference value :  3.27933e-09 Reference value :  3.27953e-09 Reference value :  3.27973e-09 Reference value :  3.27993e-09 Reference value :  3.28013e-09 Reference value :  3.28033e-09 Reference value :  3.28053e-09 Reference value :  3.28073e-09 Reference value :  3.28103e-09 Reference value :  3.28123e-09 Reference value :  3.28143e-09 Reference value :  3.28163e-09 Reference value :  3.28183e-09 Reference value :  3.28193e-09 Reference value :  3.28203e-09 Reference value :  3.28213e-09 Reference value :  3.28223e-09 Reference value :  3.28243e-09 Reference value :  3.28263e-09 Reference value :  3.28273e-09 Reference value :  3.28293e-09 Reference value :  3.28423e-09 Reference value :  3.28433e-09 Reference value :  3.28443e-09 Reference value :  3.28463e-09 Reference value :  3.32903e-09 Reference value :  3.33513e-09 Reference value :  3.33533e-09 Reference value :  3.33553e-09 Reference value :  3.33573e-09 Reference value :  3.33593e-09 Reference value :  3.33613e-09 Reference value :  3.33633e-09 Reference value :  3.33653e-09 Reference value :  3.33673e-09 Reference value :  3.33703e-09 Reference value :  3.33723e-09 Reference value :  3.33753e-09 Reference value :  3.33773e-09 Reference value :  3.33793e-09 Reference value :  3.33813e-09 Reference value :  3.34293e-09 Reference value :  3.34313e-09 Reference value :  3.34323e-09 Reference value :  3.34333e-09 Reference value :  3.34343e-09 Reference value :  3.34363e-09 Reference value :  3.34383e-09 Reference value :  3.34403e-09 Reference value :  3.34413e-09 Reference value :  3.34433e-09 Reference value :  3.34443e-09 Reference value :  3.34453e-09 Reference value :  3.34463e-09 Reference value :  3.34473e-09 Reference value :  3.37063e-09 Reference value :  3.37083e-09 Reference value :  3.39433e-09 Reference value :  3.40043e-09 Reference value :  3.43053e-09 Reference value :  3.43063e-09 Reference value :  3.43083e-09 Reference value :  3.43103e-09 Reference value :  3.43113e-09 Reference value :  3.43133e-09 Reference value :  3.43143e-09 Reference value :  3.43153e-09 Reference value :  3.43173e-09 Reference value :  3.43193e-09 Reference value :  3.43213e-09 Reference value :  3.43233e-09 Reference value :  3.43473e-09 Reference value :  3.43493e-09 Reference value :  3.43513e-09 Reference value :  3.43533e-09 Reference value :  3.43753e-09 Reference value :  3.43773e-09 Reference value :  3.43793e-09 Reference value :  3.43823e-09 Reference value :  3.44903e-09 Reference value :  3.44923e-09 Reference value :  3.44943e-09 Reference value :  3.44963e-09 Reference value :  3.44983e-09 Reference value :  3.45003e-09 Reference value :  3.45023e-09 Reference value :  3.45043e-09 Reference value :  3.45063e-09 Reference value :  3.47033e-09 Reference value :  3.47053e-09 Reference value :  3.47363e-09 Reference value :  3.47813e-09 Reference value :  3.47833e-09 Reference value :  3.48253e-09 Reference value :  3.48273e-09 Reference value :  3.48293e-09 Reference value :  3.48313e-09 Reference value :  3.48623e-09 Reference value :  3.48643e-09 Reference value :  3.48663e-09 Reference value :  3.50483e-09 Reference value :  3.50503e-09 Reference value :  3.59593e-09 Reference value :  3.61523e-09 Reference value :  3.61543e-09 Reference value :  3.61553e-09 Reference value :  3.61563e-09 Reference value :  3.61573e-09 Reference value :  3.61593e-09 Reference value :  3.61843e-09 Reference value :  3.61963e-09 Reference value :  3.61973e-09 Reference value :  3.63153e-09 Reference value :  3.69803e-09 Reference value :  3.69823e-09 Reference value :  3.69973e-09 Reference value :  3.69983e-09 Reference value :  3.70003e-09 Reference value :  3.73033e-09 Reference value :  3.73043e-09 Reference value :  3.73363e-09 Reference value :  3.73373e-09 Reference value :  3.73383e-09 Reference value :  3.73403e-09 Reference value :  3.73413e-09 Reference value :  3.73963e-09 Reference value :  3.77953e-09 Reference value :  3.81663e-09 Reference value :  3.82123e-09 Reference value :  3.82143e-09 Reference value :  3.82163e-09 Reference value :  3.83323e-09 Reference value :  3.83343e-09 Reference value :  3.83373e-09 Reference value :  3.83433e-09 Reference value :  3.83453e-09 Reference value :  3.83473e-09 Reference value :  3.83503e-09 Reference value :  3.83523e-09 Reference value :  3.83543e-09 Reference value :  3.83563e-09 Reference value :  3.87653e-09 Reference value :  3.87813e-09 Reference value :  3.92033e-09 Reference value :  3.92363e-09 Reference value :  3.92373e-09 Reference value :  3.92383e-09 Reference value :  3.92393e-09 Reference value :  3.92403e-09 Reference value :  3.92413e-09 Reference value :  3.92423e-09 Reference value :  3.92433e-09 Reference value :  3.92443e-09 Reference value :  3.92453e-09 Reference value :  3.92463e-09 Reference value :  3.92483e-09 Reference value :  3.92503e-09 Reference value :  3.92523e-09 Reference value :  3.92553e-09 Reference value :  3.92573e-09 Reference value :  3.92593e-09 Reference value :  3.92603e-09 Reference value :  3.92623e-09 Reference value :  3.92643e-09 Reference value :  3.92653e-09 Reference value :  3.92673e-09 Reference value :  3.92693e-09 Reference value :  3.92703e-09 Reference value :  3.92723e-09 Reference value :  3.92733e-09 Reference value :  3.92753e-09 Reference value :  3.92773e-09 Reference value :  3.92793e-09 Reference value :  3.92813e-09 Reference value :  3.92833e-09 Reference value :  3.92853e-09 Reference value :  3.92873e-09 Reference value :  3.93423e-09 Reference value :  3.97563e-09 Reference value :  3.98163e-09 Reference value :  3.98203e-09 Reference value :  3.98223e-09 Reference value :  3.98243e-09 Reference value :  3.98263e-09 Reference value :  3.98293e-09 Reference value :  3.98303e-09 Reference value :  4.05113e-09 Reference value :  4.14633e-09 Reference value :  4.14653e-09 Reference value :  4.18493e-09 Reference value :  4.18503e-09 Reference value :  4.18513e-09 Reference value :  4.18533e-09 Reference value :  4.18553e-09 Reference value :  4.18573e-09 Reference value :  4.18593e-09 Reference value :  4.21583e-09 Reference value :  4.21603e-09 Reference value :  4.21623e-09 Reference value :  4.21643e-09 Reference value :  4.21663e-09 Reference value :  4.21683e-09 Reference value :  4.21703e-09 Reference value :  4.21723e-09 Reference value :  4.21793e-09 Reference value :  4.23143e-09 Reference value :  4.23163e-09 Reference value :  4.23183e-09 Reference value :  4.23193e-09 Reference value :  4.23203e-09 Reference value :  4.23213e-09 Reference value :  4.23303e-09 Reference value :  4.23313e-09 Reference value :  4.23333e-09 Reference value :  4.23343e-09 Reference value :  4.23363e-09 Reference value :  4.23373e-09 Reference value :  4.23383e-09 Reference value :  4.23403e-09 Reference value :  4.23423e-09 Reference value :  4.23853e-09 Reference value :  4.29073e-09 Reference value :  4.29083e-09 Reference value :  4.29103e-09 Reference value :  4.29123e-09 Reference value :  4.31013e-09 Reference value :  4.32273e-09 Reference value :  4.37283e-09 Reference value :  4.42333e-09 Reference value :  4.50853e-09 Reference value :  4.57113e-09 Reference value :  4.64253e-09 Reference value :  4.64273e-09 Reference value :  4.64293e-09 Reference value :  4.67193e-09 Reference value :  4.67213e-09 Reference value :  4.67233e-09 Reference value :  4.67253e-09 Reference value :  4.67273e-09 Reference value :  4.67283e-09 Reference value :  4.67293e-09 Reference value :  4.67303e-09 Reference value :  4.68163e-09 Reference value :  4.68173e-09 Reference value :  4.68183e-09 Reference value :  4.68203e-09 Reference value :  4.68213e-09 Reference value :  4.68223e-09 Reference value :  4.68233e-09 Reference value :  4.68243e-09 Reference value :  4.68263e-09 Reference value :  4.68283e-09 Reference value :  4.68293e-09 Reference value :  4.68303e-09 Reference value :  4.68323e-09 Reference value :  4.68333e-09 Reference value :  4.68343e-09 Reference value :  4.68363e-09 Reference value :  4.68383e-09 Reference value :  4.68393e-09 Reference value :  4.68413e-09 Reference value :  4.68553e-09 Reference value :  4.69013e-09 Reference value :  4.69173e-09 Reference value :  4.69363e-09 Reference value :  4.69603e-09 Reference value :  4.71493e-09 Reference value :  4.71513e-09 Reference value :  4.71533e-09 Reference value :  4.71553e-09 Reference value :  4.71573e-09 Reference value :  4.72033e-09 Reference value :  4.72053e-09 Reference value :  4.72073e-09 Reference value :  4.72093e-09 Reference value :  4.72113e-09 Reference value :  4.72133e-09 Reference value :  4.74373e-09 Reference value :  4.74393e-09 Reference value :  4.74413e-09 Reference value :  4.74443e-09 Reference value :  4.74463e-09 Reference value :  4.78073e-09 Reference value :  4.78643e-09 Reference value :  4.78663e-09 Reference value :  4.78673e-09 Reference value :  4.78923e-09 Reference value :  4.78943e-09 Reference value :  4.81023e-09 Reference value :  4.81043e-09 Reference value :  4.84013e-09 Reference value :  4.84033e-09 Reference value :  4.84063e-09 Reference value :  4.84083e-09 Reference value :  4.84103e-09 Reference value :  4.84123e-09 Reference value :  4.84143e-09 Reference value :  4.84163e-09 Reference value :  4.84183e-09 Reference value :  4.84203e-09 Reference value :  4.84223e-09 Reference value :  4.84243e-09 Reference value :  4.84893e-09 Reference value :  4.84913e-09 Reference value :  4.85643e-09 Reference value :  4.85663e-09 Reference value :  4.85683e-09 Reference value :  4.85703e-09 Reference value :  4.85723e-09 Reference value :  4.85743e-09 Reference value :  4.85763e-09 Reference value :  4.85783e-09 Reference value :  4.85803e-09 Reference value :  4.85813e-09 Reference value :  4.85833e-09 Reference value :  4.85843e-09 Reference value :  4.85863e-09 Reference value :  4.85883e-09 Reference value :  4.85903e-09 Reference value :  4.85913e-09 Reference value :  4.85933e-09 Reference value :  4.86643e-09 Reference value :  4.86663e-09 Reference value :  4.89433e-09 Reference value :  4.89733e-09 Reference value :  4.89753e-09 Reference value :  4.89773e-09 Reference value :  4.89783e-09 Reference value :  4.89793e-09 Reference value :  4.89813e-09 Reference value :  4.89823e-09 Reference value :  4.89833e-09 Reference value :  4.89843e-09 Reference value :  4.89853e-09 Reference value :  4.89863e-09 Reference value :  4.89873e-09 Reference value :  4.89893e-09 Reference value :  4.89903e-09 Reference value :  4.89923e-09 Reference value :  4.89943e-09 Reference value :  4.89953e-09 Reference value :  4.89973e-09 Reference value :  4.89993e-09 Reference value :  4.90003e-09 Reference value :  4.90013e-09 Reference value :  4.90033e-09 Reference value :  4.90043e-09 Reference value :  4.90053e-09 Reference value :  4.90063e-09 Reference value :  4.90083e-09 Reference value :  4.90093e-09 Reference value :  4.90103e-09 Reference value :  4.90123e-09 Reference value :  4.90143e-09 Reference value :  4.90163e-09 Reference value :  4.90183e-09 Reference value :  4.90203e-09 Reference value :  4.90263e-09 Reference value :  4.90313e-09 Reference value :  4.92763e-09 Reference value :  4.92783e-09 Reference value :  4.92803e-09 Reference value :  4.92823e-09 Reference value :  4.92843e-09 Reference value :  4.95093e-09 Reference value :  4.97623e-09 Reference value :  4.97653e-09 Reference value :  4.99583e-09 Reference value :  4.99593e-09 Reference value :  4.99613e-09
No. of Data Rows : 50008
Note: Simulation executed from .control section 


Note: No compatibility mode selected!


Circuit: ** sch_path: /home/bmott/tt_relative_path_test/xsch/tb/ringosc/ringosc_tb_mc.sch

Doing analysis at TEMP = 27.000000 and TNOM = 27.000000

Using SPARSE 1.3 as Direct Linear Solver

Initial Transient Solution
--------------------------

Node                                   Voltage
----                                   -------
x1.net1                               0.844447
out                                   0.829546
net1                                       1.8
x1.net2                               0.818705
v1#branch                         -5.03845e-05

 Reference value :  0.00000e+00 Reference value :  1.32280e-11 Reference value :  1.33280e-11 Reference value :  1.35280e-11 Reference value :  1.36280e-11 Reference value :  2.75280e-11 Reference value :  2.77280e-11 Reference value :  2.79280e-11 Reference value :  2.80280e-11 Reference value :  2.82280e-11 Reference value :  2.83280e-11 Reference value :  2.84280e-11 Reference value :  2.85280e-11 Reference value :  2.87280e-11 Reference value :  3.12280e-11 Reference value :  3.14280e-11 Reference value :  3.16280e-11 Reference value :  3.18280e-11 Reference value :  3.20280e-11 Reference value :  3.21280e-11 Reference value :  3.22280e-11 Reference value :  7.92280e-11 Reference value :  7.94280e-11 Reference value :  7.95280e-11 Reference value :  8.15280e-11 Reference value :  8.17280e-11 Reference value :  8.19280e-11 Reference value :  8.21280e-11 Reference value :  8.23280e-11 Reference value :  8.25280e-11 Reference value :  8.27280e-11 Reference value :  8.29280e-11 Reference value :  8.31280e-11 Reference value :  8.32280e-11 Reference value :  8.33280e-11 Reference value :  8.34280e-11 Reference value :  8.36280e-11 Reference value :  8.37280e-11 Reference value :  8.39280e-11 Reference value :  8.41280e-11 Reference value :  8.43280e-11 Reference value :  8.44280e-11 Reference value :  8.46280e-11 Reference value :  8.48280e-11 Reference value :  8.49280e-11 Reference value :  8.51280e-11 Reference value :  8.53280e-11 Reference value :  9.22280e-11 Reference value :  9.49280e-11 Reference value :  9.50280e-11 Reference value :  9.52280e-11 Reference value :  1.56528e-10 Reference value :  1.81628e-10 Reference value :  1.81828e-10 Reference value :  1.82028e-10 Reference value :  1.82228e-10 Reference value :  1.82428e-10 Reference value :  1.82628e-10 Reference value :  1.86228e-10 Reference value :  1.86528e-10 Reference value :  2.41228e-10 Reference value :  2.41428e-10 Reference value :  2.41528e-10 Reference value :  2.41628e-10 Reference value :  2.41728e-10 Reference value :  2.41828e-10 Reference value :  2.89928e-10 Reference value :  2.90028e-10 Reference value :  2.90128e-10 Reference value :  2.90228e-10 Reference value :  2.90328e-10 Reference value :  2.90528e-10 Reference value :  2.90628e-10 Reference value :  2.90828e-10 Reference value :  2.91028e-10 Reference value :  2.91228e-10 Reference value :  2.91428e-10 Reference value :  2.91528e-10 Reference value :  2.91728e-10 Reference value :  2.91928e-10 Reference value :  2.92128e-10 Reference value :  2.92328e-10 Reference value :  2.92528e-10 Reference value :  2.92728e-10 Reference value :  2.99428e-10 Reference value :  2.99628e-10 Reference value :  3.27228e-10 Reference value :  3.27428e-10 Reference value :  3.27528e-10 Reference value :  3.27728e-10 Reference value :  3.27928e-10 Reference value :  3.94428e-10 Reference value :  3.94628e-10 Reference value :  3.94828e-10 Reference value :  4.77328e-10 Reference value :  4.80228e-10 Reference value :  4.80428e-10 Reference value :  4.80628e-10 Reference value :  4.80828e-10 Reference value :  4.81028e-10 Reference value :  4.81528e-10 Reference value :  4.81728e-10 Reference value :  4.81828e-10 Reference value :  4.82028e-10 Reference value :  4.82228e-10 Reference value :  4.82428e-10 Reference value :  4.82628e-10 Reference value :  4.82828e-10 Reference value :  4.82928e-10 Reference value :  4.83128e-10 Reference value :  4.83328e-10 Reference value :  4.83528e-10 Reference value :  4.92628e-10 Reference value :  4.92828e-10 Reference value :  5.04228e-10 Reference value :  5.12028e-10 Reference value :  5.12128e-10 Reference value :  5.12328e-10 Reference value :  5.12528e-10 Reference value :  5.12628e-10 Reference value :  5.12728e-10 Reference value :  5.12828e-10 Reference value :  5.12928e-10 Reference value :  5.13028e-10 Reference value :  5.13128e-10 Reference value :  5.13228e-10 Reference value :  5.13328e-10 Reference value :  5.13428e-10 Reference value :  5.13628e-10 Reference value :  5.13728e-10 Reference value :  5.13828e-10 Reference value :  5.14028e-10 Reference value :  5.14128e-10 Reference value :  5.14328e-10 Reference value :  5.14528e-10 Reference value :  5.14628e-10 Reference value :  5.14828e-10 Reference value :  5.15028e-10 Reference value :  5.15228e-10 Reference value :  5.15428e-10 Reference value :  5.16728e-10 Reference value :  5.16928e-10 Reference value :  5.17128e-10 Reference value :  5.17328e-10 Reference value :  5.17528e-10 Reference value :  5.17628e-10 Reference value :  5.17828e-10 Reference value :  5.17928e-10 Reference value :  5.18028e-10 Reference value :  5.18228e-10 Reference value :  5.18428e-10 Reference value :  5.18528e-10 Reference value :  5.18628e-10 Reference value :  5.18728e-10 Reference value :  5.18828e-10 Reference value :  5.18928e-10 Reference value :  5.19028e-10 Reference value :  5.19128e-10 Reference value :  5.19228e-10 Reference value :  5.19328e-10 Reference value :  5.19428e-10 Reference value :  5.19628e-10 Reference value :  5.19728e-10 Reference value :  5.19828e-10 Reference value :  5.20028e-10 Reference value :  5.20128e-10 Reference value :  5.20228e-10 Reference value :  5.20328e-10 Reference value :  5.20528e-10 Reference value :  5.20728e-10 Reference value :  5.20828e-10 Reference value :  5.20928e-10 Reference value :  5.21128e-10 Reference value :  5.21328e-10 Reference value :  5.21528e-10 Reference value :  5.21628e-10 Reference value :  5.21828e-10 Reference value :  5.21928e-10 Reference value :  5.22028e-10 Reference value :  5.22128e-10 Reference value :  5.22228e-10 Reference value :  5.22328e-10 Reference value :  5.22528e-10 Reference value :  5.25228e-10 Reference value :  5.25428e-10 Reference value :  5.75328e-10 Reference value :  5.75528e-10 Reference value :  5.86228e-10 Reference value :  5.86328e-10 Reference value :  5.86528e-10 Reference value :  5.86728e-10 Reference value :  5.86828e-10 Reference value :  5.86928e-10 Reference value :  5.87028e-10 Reference value :  5.87228e-10 Reference value :  5.87428e-10 Reference value :  5.87528e-10 Reference value :  5.87728e-10 Reference value :  6.13728e-10 Reference value :  6.14228e-10 Reference value :  6.14328e-10 Reference value :  6.14728e-10 Reference value :  6.14828e-10 Reference value :  6.14928e-10 Reference value :  6.18128e-10 Reference value :  6.18328e-10 Reference value :  6.18428e-10 Reference value :  6.18628e-10 Reference value :  6.21428e-10 Reference value :  6.33928e-10 Reference value :  6.34128e-10 Reference value :  6.34328e-10 Reference value :  6.34528e-10 Reference value :  6.35028e-10 Reference value :  6.58628e-10 Reference value :  6.58828e-10 Reference value :  6.59028e-10 Reference value :  6.59328e-10 Reference value :  6.59428e-10 Reference value :  6.59528e-10 Reference value :  6.59728e-10 Reference value :  6.59928e-10 Reference value :  6.60028e-10 Reference value :  6.60228e-10 Reference value :  6.60328e-10 Reference value :  6.60528e-10 Reference value :  6.60728e-10 Reference value :  6.60928e-10 Reference value :  6.61028e-10 Reference value :  6.61128e-10 Reference value :  6.61228e-10 Reference value :  6.61328e-10 Reference value :  6.61428e-10 Reference value :  6.61528e-10 Reference value :  6.61728e-10 Reference value :  6.61828e-10 Reference value :  6.61928e-10 Reference value :  6.62128e-10 Reference value :  6.62228e-10 Reference value :  6.62328e-10 Reference value :  6.62528e-10 Reference value :  6.62728e-10 Reference value :  6.62928e-10 Reference value :  6.63128e-10 Reference value :  7.05728e-10 Reference value :  7.05928e-10 Reference value :  7.26628e-10 Reference value :  7.64828e-10 Reference value :  8.13228e-10 Reference value :  8.18628e-10 Reference value :  8.18828e-10 Reference value :  8.19428e-10 Reference value :  8.19628e-10 Reference value :  8.21128e-10 Reference value :  8.21328e-10 Reference value :  8.21528e-10 Reference value :  8.32828e-10 Reference value :  8.67528e-10 Reference value :  8.71528e-10 Reference value :  8.71628e-10 Reference value :  8.71828e-10 Reference value :  8.78928e-10 Reference value :  8.79128e-10 Reference value :  8.79228e-10 Reference value :  8.79428e-10 Reference value :  8.79528e-10 Reference value :  8.79728e-10 Reference value :  8.79928e-10 Reference value :  8.80128e-10 Reference value :  8.80228e-10 Reference value :  8.80328e-10 Reference value :  8.80528e-10 Reference value :  8.80728e-10 Reference value :  8.80928e-10 Reference value :  8.81128e-10 Reference value :  8.81328e-10 Reference value :  8.81428e-10 Reference value :  8.81628e-10 Reference value :  8.81828e-10 Reference value :  8.81928e-10 Reference value :  8.82128e-10 Reference value :  8.82328e-10 Reference value :  8.82528e-10 Reference value :  8.82728e-10 Reference value :  8.85728e-10 Reference value :  8.85928e-10 Reference value :  8.86128e-10 Reference value :  8.86228e-10 Reference value :  8.86328e-10 Reference value :  8.86528e-10 Reference value :  8.96028e-10 Reference value :  8.96128e-10 Reference value :  8.96228e-10 Reference value :  9.05628e-10 Reference value :  9.05728e-10 Reference value :  9.05928e-10 Reference value :  9.08028e-10 Reference value :  9.21628e-10 Reference value :  9.64028e-10 Reference value :  9.64128e-10 Reference value :  9.64228e-10 Reference value :  9.64428e-10 Reference value :  9.74128e-10 Reference value :  1.08903e-09 Reference value :  1.09363e-09 Reference value :  1.14023e-09 Reference value :  1.14043e-09 Reference value :  1.14903e-09 Reference value :  1.14923e-09 Reference value :  1.14943e-09 Reference value :  1.14953e-09 Reference value :  1.14973e-09 Reference value :  1.14993e-09 Reference value :  1.22393e-09 Reference value :  1.24543e-09 Reference value :  1.37183e-09 Reference value :  1.37203e-09 Reference value :  1.37583e-09 Reference value :  1.41223e-09 Reference value :  1.41683e-09 Reference value :  1.45773e-09 Reference value :  1.45793e-09 Reference value :  1.45813e-09 Reference value :  1.51423e-09 Reference value :  1.56533e-09 Reference value :  1.56553e-09 Reference value :  1.56573e-09 Reference value :  1.56583e-09 Reference value :  1.56963e-09 Reference value :  1.56983e-09 Reference value :  1.56993e-09 Reference value :  1.57013e-09 Reference value :  1.57033e-09 Reference value :  1.57053e-09 Reference value :  1.57073e-09 Reference value :  1.59873e-09 Reference value :  1.60093e-09 Reference value :  1.60113e-09 Reference value :  1.60133e-09 Reference value :  1.60693e-09 Reference value :  1.60703e-09 Reference value :  1.60723e-09 Reference value :  1.65203e-09 Reference value :  1.65223e-09 Reference value :  1.65233e-09 Reference value :  1.65253e-09 Reference value :  1.68123e-09 Reference value :  1.68143e-09 Reference value :  1.68163e-09 Reference value :  1.68183e-09 Reference value :  1.68203e-09 Reference value :  1.68223e-09 Reference value :  1.68243e-09 Reference value :  1.68263e-09 Reference value :  1.68283e-09 Reference value :  1.68313e-09 Reference value :  1.68333e-09 Reference value :  1.68353e-09 Reference value :  1.71523e-09 Reference value :  1.72593e-09 Reference value :  1.72613e-09 Reference value :  1.72633e-09 Reference value :  1.72833e-09 Reference value :  1.72853e-09 Reference value :  1.72873e-09 Reference value :  1.73573e-09 Reference value :  1.73593e-09 Reference value :  1.73673e-09 Reference value :  1.73693e-09 Reference value :  1.73713e-09 Reference value :  1.74103e-09 Reference value :  1.74113e-09 Reference value :  1.74133e-09 Reference value :  1.74153e-09 Reference value :  1.74173e-09 Reference value :  1.74353e-09 Reference value :  1.74373e-09 Reference value :  1.74383e-09 Reference value :  1.74403e-09 Reference value :  1.77953e-09 Reference value :  1.78123e-09 Reference value :  1.78143e-09 Reference value :  1.78163e-09 Reference value :  1.78183e-09 Reference value :  1.78293e-09 Reference value :  1.78323e-09 Reference value :  1.78793e-09 Reference value :  1.78813e-09 Reference value :  1.78833e-09 Reference value :  1.78853e-09 Reference value :  1.78873e-09 Reference value :  1.78893e-09 Reference value :  1.79733e-09 Reference value :  1.79743e-09 Reference value :  1.79753e-09 Reference value :  1.79773e-09 Reference value :  1.79783e-09 Reference value :  1.80013e-09 Reference value :  1.81973e-09 Reference value :  1.81993e-09 Reference value :  1.82753e-09 Reference value :  1.86293e-09 Reference value :  1.86303e-09 Reference value :  1.86323e-09 Reference value :  1.86343e-09 Reference value :  1.86373e-09 Reference value :  1.86393e-09 Reference value :  1.86413e-09 Reference value :  1.86443e-09 Reference value :  1.86463e-09 Reference value :  1.91883e-09 Reference value :  1.91903e-09 Reference value :  1.91923e-09 Reference value :  1.91933e-09 Reference value :  1.91943e-09 Reference value :  1.93533e-09 Reference value :  1.93543e-09 Reference value :  1.93563e-09 Reference value :  1.93583e-09 Reference value :  1.93603e-09 Reference value :  1.93623e-09 Reference value :  1.93643e-09 Reference value :  1.93663e-09 Reference value :  1.93683e-09 Reference value :  1.93983e-09 Reference value :  1.94003e-09 Reference value :  1.94023e-09 Reference value :  1.94043e-09 Reference value :  1.94063e-09 Reference value :  1.94083e-09 Reference value :  1.94103e-09 Reference value :  1.94113e-09 Reference value :  1.94123e-09 Reference value :  1.94143e-09 Reference value :  1.94153e-09 Reference value :  1.94173e-09 Reference value :  1.94193e-09 Reference value :  1.94213e-09 Reference value :  1.94223e-09 Reference value :  1.94243e-09 Reference value :  1.94253e-09 Reference value :  1.94273e-09 Reference value :  1.94283e-09 Reference value :  1.94293e-09 Reference value :  1.94303e-09 Reference value :  1.94313e-09 Reference value :  1.94323e-09 Reference value :  1.94333e-09 Reference value :  1.94393e-09 Reference value :  1.94953e-09 Reference value :  1.94963e-09 Reference value :  1.94983e-09 Reference value :  1.95623e-09 Reference value :  1.98653e-09 Reference value :  2.03543e-09 Reference value :  2.03553e-09 Reference value :  2.03573e-09 Reference value :  2.03863e-09 Reference value :  2.03883e-09 Reference value :  2.03893e-09 Reference value :  2.03913e-09 Reference value :  2.03933e-09 Reference value :  2.03953e-09 Reference value :  2.03963e-09 Reference value :  2.03973e-09 Reference value :  2.04613e-09 Reference value :  2.04623e-09 Reference value :  2.04633e-09 Reference value :  2.04643e-09 Reference value :  2.04653e-09 Reference value :  2.04663e-09 Reference value :  2.04683e-09 Reference value :  2.05243e-09 Reference value :  2.05943e-09 Reference value :  2.05953e-09 Reference value :  2.05973e-09 Reference value :  2.05993e-09 Reference value :  2.09123e-09 Reference value :  2.09143e-09 Reference value :  2.09163e-09 Reference value :  2.10823e-09 Reference value :  2.11563e-09 Reference value :  2.11583e-09 Reference value :  2.11603e-09 Reference value :  2.16813e-09 Reference value :  2.16833e-09 Reference value :  2.23113e-09 Reference value :  2.23133e-09 Reference value :  2.23143e-09 Reference value :  2.23163e-09 Reference value :  2.23173e-09 Reference value :  2.23193e-09 Reference value :  2.23213e-09 Reference value :  2.33923e-09 Reference value :  2.34953e-09 Reference value :  2.34973e-09 Reference value :  2.44303e-09 Reference value :  2.47303e-09 Reference value :  2.57533e-09 Reference value :  2.62913e-09 Reference value :  2.62933e-09 Reference value :  2.66563e-09 Reference value :  2.66583e-09 Reference value :  2.66773e-09 Reference value :  2.71873e-09 Reference value :  2.72213e-09 Reference value :  2.72223e-09 Reference value :  2.72233e-09 Reference value :  2.72243e-09 Reference value :  2.72253e-09 Reference value :  2.72273e-09 Reference value :  2.72323e-09 Reference value :  2.72343e-09 Reference value :  2.72363e-09 Reference value :  2.88063e-09 Reference value :  3.05793e-09 Reference value :  3.23613e-09 Reference value :  3.42093e-09 Reference value :  3.59153e-09 Reference value :  3.68103e-09 Reference value :  3.86093e-09 Reference value :  4.02763e-09 Reference value :  4.22243e-09 Reference value :  4.38233e-09 Reference value :  4.57093e-09 Reference value :  4.76413e-09 Reference value :  4.95583e-09
No. of Data Rows : 50008
Note: Simulation executed from .control section 

