
Note: Compatibility modes selected: hs a


Circuit: ** sch_path: /home/bmott/tt_relative_path_test/xsch/tb/ringosc/ringosc_tb_mc.sch

option SCALE: Scale is set to 1e-06 for instance and model parameters
option SCALE: Scale is set to 1e-06 for instance and model parameters
option SCALE: Scale is set to 1e-06 for instance and model parameters
option SCALE: Scale is set to 1e-06 for instance and model parameters
Doing analysis at TEMP = 27.000000 and TNOM = 27.000000

Using KLU as Direct Linear Solver
 Reference value :  0.00000e+00 Reference value :  1.17128e-10 Reference value :  2.35728e-10 Reference value :  3.60828e-10 Reference value :  4.76328e-10 Reference value :  5.87428e-10 Reference value :  6.22228e-10 Reference value :  6.52028e-10 Reference value :  6.83428e-10 Reference value :  6.83528e-10 Reference value :  6.83728e-10 Reference value :  6.83928e-10 Reference value :  7.41828e-10 Reference value :  7.89228e-10 Reference value :  7.89428e-10 Reference value :  7.89628e-10 Reference value :  8.08828e-10 Reference value :  8.08928e-10 Reference value :  8.09028e-10 Reference value :  8.11628e-10 Reference value :  8.11828e-10 Reference value :  8.12028e-10 Reference value :  8.57328e-10 Reference value :  8.57528e-10 Reference value :  9.00628e-10 Reference value :  9.49428e-10 Reference value :  9.86128e-10 Reference value :  9.86328e-10 Reference value :  9.86528e-10 Reference value :  1.12293e-09 Reference value :  1.24833e-09 Reference value :  1.37393e-09 Reference value :  1.46283e-09 Reference value :  1.49513e-09 Reference value :  1.49523e-09 Reference value :  1.51423e-09 Reference value :  1.55563e-09 Reference value :  1.58373e-09 Reference value :  1.58393e-09 Reference value :  1.62123e-09 Reference value :  1.62263e-09 Reference value :  1.62283e-09 Reference value :  1.62303e-09 Reference value :  1.62323e-09 Reference value :  1.62333e-09 Reference value :  1.64373e-09 Reference value :  1.70513e-09 Reference value :  1.77313e-09 Reference value :  1.89513e-09 Reference value :  2.00823e-09 Reference value :  2.14483e-09 Reference value :  2.27223e-09 Reference value :  2.34303e-09 Reference value :  2.36743e-09 Reference value :  2.37843e-09 Reference value :  2.37933e-09 Reference value :  2.37943e-09 Reference value :  2.37953e-09 Reference value :  2.37973e-09 Reference value :  2.40013e-09 Reference value :  2.40023e-09 Reference value :  2.40043e-09 Reference value :  2.41233e-09 Reference value :  2.47463e-09 Reference value :  2.51633e-09 Reference value :  2.56443e-09 Reference value :  2.60993e-09 Reference value :  2.61003e-09 Reference value :  2.62793e-09 Reference value :  2.67693e-09 Reference value :  2.67713e-09 Reference value :  2.69973e-09 Reference value :  2.72713e-09 Reference value :  2.77163e-09 Reference value :  2.93523e-09 Reference value :  3.10353e-09 Reference value :  3.25863e-09 Reference value :  3.44543e-09 Reference value :  3.63993e-09 Reference value :  3.77973e-09 Reference value :  3.95043e-09 Reference value :  4.08493e-09 Reference value :  4.18633e-09 Reference value :  4.34583e-09 Reference value :  4.50113e-09 Reference value :  4.66433e-09 Reference value :  4.83593e-09 Reference value :  4.98743e-09
No. of Data Rows : 50008
Note: Simulation executed from .control section 


Note: Compatibility modes selected: hs a


Circuit: ** sch_path: /home/bmott/tt_relative_path_test/xsch/tb/ringosc/ringosc_tb_mc.sch

option SCALE: Scale is set to 1e-06 for instance and model parameters
option SCALE: Scale is set to 1e-06 for instance and model parameters
option SCALE: Scale is set to 1e-06 for instance and model parameters
option SCALE: Scale is set to 1e-06 for instance and model parameters
Doing analysis at TEMP = 27.000000 and TNOM = 27.000000

Using KLU as Direct Linear Solver
 Reference value :  0.00000e+00 Reference value :  5.36280e-11 Reference value :  1.66328e-10 Reference value :  2.97128e-10 Reference value :  4.30728e-10 Reference value :  5.43428e-10 Reference value :  5.89528e-10 Reference value :  5.89728e-10 Reference value :  6.87728e-10 Reference value :  8.16428e-10 Reference value :  8.29828e-10 Reference value :  8.30028e-10 Reference value :  8.30228e-10 Reference value :  8.30428e-10 Reference value :  8.30528e-10 Reference value :  8.85728e-10 Reference value :  1.04493e-09 Reference value :  1.22893e-09 Reference value :  1.35423e-09 Reference value :  1.50123e-09 Reference value :  1.56413e-09 Reference value :  1.63973e-09 Reference value :  1.64023e-09 Reference value :  1.64043e-09 Reference value :  1.64063e-09 Reference value :  1.79213e-09 Reference value :  1.95203e-09 Reference value :  2.12743e-09 Reference value :  2.26943e-09 Reference value :  2.41583e-09 Reference value :  2.55993e-09 Reference value :  2.63473e-09 Reference value :  2.69173e-09 Reference value :  2.72363e-09 Reference value :  2.76303e-09 Reference value :  2.80073e-09 Reference value :  2.96953e-09 Reference value :  2.99943e-09 Reference value :  2.99963e-09 Reference value :  3.02223e-09 Reference value :  3.03183e-09 Reference value :  3.05683e-09 Reference value :  3.13223e-09 Reference value :  3.20353e-09 Reference value :  3.20363e-09 Reference value :  3.20373e-09 Reference value :  3.34053e-09 Reference value :  3.51383e-09 Reference value :  3.54363e-09 Reference value :  3.65133e-09 Reference value :  3.65683e-09 Reference value :  3.72203e-09 Reference value :  3.76083e-09 Reference value :  3.89063e-09 Reference value :  4.01953e-09 Reference value :  4.03193e-09 Reference value :  4.07833e-09 Reference value :  4.07903e-09 Reference value :  4.13623e-09 Reference value :  4.20773e-09 Reference value :  4.31993e-09 Reference value :  4.44463e-09 Reference value :  4.49393e-09 Reference value :  4.49823e-09 Reference value :  4.49843e-09 Reference value :  4.49853e-09 Reference value :  4.49863e-09 Reference value :  4.49873e-09 Reference value :  4.49883e-09 Reference value :  4.49893e-09 Reference value :  4.49903e-09 Reference value :  4.49923e-09 Reference value :  4.49943e-09 Reference value :  4.49963e-09 Reference value :  4.51433e-09 Reference value :  4.51523e-09 Reference value :  4.51543e-09 Reference value :  4.51563e-09 Reference value :  4.51583e-09 Reference value :  4.51603e-09 Reference value :  4.55793e-09 Reference value :  4.60833e-09 Reference value :  4.60873e-09 Reference value :  4.65463e-09 Reference value :  4.74443e-09 Reference value :  4.87533e-09
No. of Data Rows : 50008
Note: Simulation executed from .control section 


Note: Compatibility modes selected: hs a


Circuit: ** sch_path: /home/bmott/tt_relative_path_test/xsch/tb/ringosc/ringosc_tb_mc.sch

option SCALE: Scale is set to 1e-06 for instance and model parameters
option SCALE: Scale is set to 1e-06 for instance and model parameters
option SCALE: Scale is set to 1e-06 for instance and model parameters
option SCALE: Scale is set to 1e-06 for instance and model parameters
Doing analysis at TEMP = 27.000000 and TNOM = 27.000000

Using KLU as Direct Linear Solver
 Reference value :  0.00000e+00 Reference value :  1.31328e-10 Reference value :  2.94528e-10 Reference value :  4.48328e-10 Reference value :  6.13328e-10 Reference value :  7.74428e-10 Reference value :  9.14428e-10 Reference value :  1.06973e-09 Reference value :  1.23703e-09 Reference value :  1.39353e-09 Reference value :  1.52723e-09 Reference value :  1.66573e-09 Reference value :  1.83353e-09 Reference value :  1.93213e-09 Reference value :  2.04323e-09 Reference value :  2.18613e-09 Reference value :  2.32863e-09 Reference value :  2.48033e-09 Reference value :  2.63573e-09 Reference value :  2.79093e-09 Reference value :  2.94213e-09 Reference value :  3.09833e-09 Reference value :  3.25063e-09 Reference value :  3.40643e-09 Reference value :  3.55803e-09 Reference value :  3.65533e-09 Reference value :  3.73043e-09 Reference value :  3.84323e-09 Reference value :  3.88503e-09 Reference value :  3.88893e-09 Reference value :  3.88913e-09 Reference value :  3.93913e-09 Reference value :  3.98093e-09 Reference value :  3.99403e-09 Reference value :  4.03643e-09 Reference value :  4.09033e-09 Reference value :  4.09043e-09 Reference value :  4.09083e-09 Reference value :  4.09113e-09 Reference value :  4.09133e-09 Reference value :  4.09193e-09 Reference value :  4.09313e-09 Reference value :  4.09453e-09 Reference value :  4.09483e-09 Reference value :  4.09853e-09 Reference value :  4.11443e-09 Reference value :  4.16413e-09 Reference value :  4.17563e-09 Reference value :  4.17573e-09 Reference value :  4.17593e-09 Reference value :  4.22243e-09 Reference value :  4.28903e-09 Reference value :  4.38933e-09 Reference value :  4.49533e-09 Reference value :  4.55943e-09 Reference value :  4.58963e-09 Reference value :  4.59513e-09 Reference value :  4.63263e-09 Reference value :  4.63283e-09 Reference value :  4.67953e-09 Reference value :  4.73863e-09 Reference value :  4.76793e-09 Reference value :  4.90853e-09
No. of Data Rows : 50008
Note: Simulation executed from .control section 


Note: Compatibility modes selected: hs a


Circuit: ** sch_path: /home/bmott/tt_relative_path_test/xsch/tb/ringosc/ringosc_tb_mc.sch

option SCALE: Scale is set to 1e-06 for instance and model parameters
option SCALE: Scale is set to 1e-06 for instance and model parameters
option SCALE: Scale is set to 1e-06 for instance and model parameters
option SCALE: Scale is set to 1e-06 for instance and model parameters
Doing analysis at TEMP = 27.000000 and TNOM = 27.000000

Using KLU as Direct Linear Solver
 Reference value :  0.00000e+00 Reference value :  2.00000e-15 Reference value :  6.40280e-11 Reference value :  1.95728e-10 Reference value :  3.20828e-10 Reference value :  4.64628e-10 Reference value :  5.85828e-10 Reference value :  7.26128e-10 Reference value :  8.79228e-10 Reference value :  1.01423e-09 Reference value :  1.15763e-09 Reference value :  1.29463e-09 Reference value :  1.42763e-09 Reference value :  1.59873e-09 Reference value :  1.72603e-09 Reference value :  1.88363e-09 Reference value :  2.02693e-09 Reference value :  2.18523e-09 Reference value :  2.27103e-09 Reference value :  2.34773e-09 Reference value :  2.44893e-09 Reference value :  2.57173e-09 Reference value :  2.70393e-09 Reference value :  2.82043e-09 Reference value :  2.94413e-09 Reference value :  3.06293e-09 Reference value :  3.16583e-09 Reference value :  3.30123e-09 Reference value :  3.41753e-09 Reference value :  3.52143e-09 Reference value :  3.63703e-09 Reference value :  3.74133e-09 Reference value :  3.87083e-09 Reference value :  3.95793e-09 Reference value :  4.06453e-09 Reference value :  4.16423e-09 Reference value :  4.29813e-09 Reference value :  4.41283e-09 Reference value :  4.54483e-09 Reference value :  4.66643e-09 Reference value :  4.78803e-09 Reference value :  4.93023e-09
No. of Data Rows : 50008
Note: Simulation executed from .control section 


Note: Compatibility modes selected: hs a


Circuit: ** sch_path: /home/bmott/tt_relative_path_test/xsch/tb/ringosc/ringosc_tb_mc.sch

option SCALE: Scale is set to 1e-06 for instance and model parameters
option SCALE: Scale is set to 1e-06 for instance and model parameters
option SCALE: Scale is set to 1e-06 for instance and model parameters
option SCALE: Scale is set to 1e-06 for instance and model parameters
Doing analysis at TEMP = 27.000000 and TNOM = 27.000000

Using KLU as Direct Linear Solver
 Reference value :  0.00000e+00 Reference value :  1.79828e-10 Reference value :  3.76928e-10 Reference value :  5.37528e-10 Reference value :  7.04028e-10 Reference value :  8.72528e-10 Reference value :  1.00703e-09 Reference value :  1.13573e-09 Reference value :  1.31733e-09 Reference value :  1.44673e-09 Reference value :  1.61573e-09 Reference value :  1.78033e-09 Reference value :  1.91843e-09 Reference value :  2.05433e-09 Reference value :  2.23983e-09 Reference value :  2.35813e-09 Reference value :  2.52333e-09 Reference value :  2.67743e-09 Reference value :  2.83523e-09 Reference value :  2.99623e-09 Reference value :  3.16233e-09 Reference value :  3.28453e-09 Reference value :  3.41413e-09 Reference value :  3.53543e-09 Reference value :  3.67653e-09 Reference value :  3.78573e-09 Reference value :  3.95253e-09 Reference value :  4.12133e-09 Reference value :  4.29343e-09 Reference value :  4.43133e-09 Reference value :  4.59583e-09 Reference value :  4.72963e-09 Reference value :  4.83033e-09 Reference value :  4.93993e-09
No. of Data Rows : 50008
Note: Simulation executed from .control section 


Note: Compatibility modes selected: hs a


Circuit: ** sch_path: /home/bmott/tt_relative_path_test/xsch/tb/ringosc/ringosc_tb_mc.sch

option SCALE: Scale is set to 1e-06 for instance and model parameters
option SCALE: Scale is set to 1e-06 for instance and model parameters
option SCALE: Scale is set to 1e-06 for instance and model parameters
option SCALE: Scale is set to 1e-06 for instance and model parameters
Doing analysis at TEMP = 27.000000 and TNOM = 27.000000

Using KLU as Direct Linear Solver
 Reference value :  0.00000e+00 Reference value :  1.64728e-10 Reference value :  3.18528e-10 Reference value :  4.88928e-10 Reference value :  6.37128e-10 Reference value :  8.13328e-10 Reference value :  9.39428e-10 Reference value :  1.08003e-09 Reference value :  1.25813e-09 Reference value :  1.44903e-09 Reference value :  1.62153e-09 Reference value :  1.80193e-09 Reference value :  1.97433e-09 Reference value :  2.12463e-09 Reference value :  2.27773e-09 Reference value :  2.43493e-09 Reference value :  2.59033e-09 Reference value :  2.73673e-09 Reference value :  2.89123e-09 Reference value :  3.04833e-09 Reference value :  3.18613e-09 Reference value :  3.34623e-09 Reference value :  3.45823e-09 Reference value :  3.57163e-09 Reference value :  3.70323e-09 Reference value :  3.85983e-09 Reference value :  4.00263e-09 Reference value :  4.17103e-09 Reference value :  4.27653e-09 Reference value :  4.40263e-09 Reference value :  4.55143e-09 Reference value :  4.71463e-09 Reference value :  4.86383e-09 Reference value :  4.99473e-09
No. of Data Rows : 50008
Note: Simulation executed from .control section 


Note: Compatibility modes selected: hs a


Circuit: ** sch_path: /home/bmott/tt_relative_path_test/xsch/tb/ringosc/ringosc_tb_mc.sch

option SCALE: Scale is set to 1e-06 for instance and model parameters
option SCALE: Scale is set to 1e-06 for instance and model parameters
option SCALE: Scale is set to 1e-06 for instance and model parameters
option SCALE: Scale is set to 1e-06 for instance and model parameters
Doing analysis at TEMP = 27.000000 and TNOM = 27.000000

Using KLU as Direct Linear Solver
 Reference value :  0.00000e+00 Reference value :  1.56128e-10 Reference value :  3.31028e-10 Reference value :  4.89828e-10 Reference value :  6.72128e-10 Reference value :  8.41528e-10 Reference value :  1.01333e-09 Reference value :  1.17613e-09 Reference value :  1.32763e-09 Reference value :  1.47273e-09 Reference value :  1.61513e-09 Reference value :  1.73593e-09 Reference value :  1.87803e-09 Reference value :  1.97883e-09 Reference value :  2.12723e-09 Reference value :  2.25273e-09 Reference value :  2.40003e-09 Reference value :  2.55333e-09 Reference value :  2.67823e-09 Reference value :  2.80373e-09 Reference value :  2.92143e-09 Reference value :  3.06853e-09 Reference value :  3.21513e-09 Reference value :  3.31783e-09 Reference value :  3.44053e-09 Reference value :  3.61403e-09 Reference value :  3.75733e-09 Reference value :  3.91773e-09 Reference value :  4.07083e-09 Reference value :  4.16583e-09 Reference value :  4.27693e-09 Reference value :  4.40613e-09 Reference value :  4.53653e-09 Reference value :  4.64663e-09 Reference value :  4.75653e-09 Reference value :  4.91633e-09
No. of Data Rows : 50008
Note: Simulation executed from .control section 


Note: Compatibility modes selected: hs a


Circuit: ** sch_path: /home/bmott/tt_relative_path_test/xsch/tb/ringosc/ringosc_tb_mc.sch

option SCALE: Scale is set to 1e-06 for instance and model parameters
option SCALE: Scale is set to 1e-06 for instance and model parameters
option SCALE: Scale is set to 1e-06 for instance and model parameters
option SCALE: Scale is set to 1e-06 for instance and model parameters
Doing analysis at TEMP = 27.000000 and TNOM = 27.000000

Using KLU as Direct Linear Solver
 Reference value :  0.00000e+00 Reference value :  1.12628e-10 Reference value :  3.06728e-10 Reference value :  4.63228e-10 Reference value :  6.28728e-10 Reference value :  7.92428e-10 Reference value :  9.25928e-10 Reference value :  1.09023e-09 Reference value :  1.25303e-09 Reference value :  1.41393e-09 Reference value :  1.59753e-09 Reference value :  1.73983e-09 Reference value :  1.89903e-09 Reference value :  2.07283e-09 Reference value :  2.23213e-09 Reference value :  2.41333e-09 Reference value :  2.53513e-09 Reference value :  2.67063e-09 Reference value :  2.80503e-09 Reference value :  2.93823e-09 Reference value :  3.07703e-09 Reference value :  3.19913e-09 Reference value :  3.34553e-09 Reference value :  3.48493e-09 Reference value :  3.62353e-09 Reference value :  3.75873e-09 Reference value :  3.89863e-09 Reference value :  4.01663e-09 Reference value :  4.14333e-09 Reference value :  4.30243e-09 Reference value :  4.45713e-09 Reference value :  4.59323e-09 Reference value :  4.74043e-09 Reference value :  4.85343e-09 Reference value :  4.98443e-09
No. of Data Rows : 50008
Note: Simulation executed from .control section 


Note: Compatibility modes selected: hs a


Circuit: ** sch_path: /home/bmott/tt_relative_path_test/xsch/tb/ringosc/ringosc_tb_mc.sch

option SCALE: Scale is set to 1e-06 for instance and model parameters
option SCALE: Scale is set to 1e-06 for instance and model parameters
option SCALE: Scale is set to 1e-06 for instance and model parameters
option SCALE: Scale is set to 1e-06 for instance and model parameters
Doing analysis at TEMP = 27.000000 and TNOM = 27.000000

Using KLU as Direct Linear Solver
 Reference value :  0.00000e+00 Reference value :  1.36928e-10 Reference value :  3.00228e-10 Reference value :  4.88128e-10 Reference value :  6.69028e-10 Reference value :  8.21828e-10 Reference value :  9.65728e-10 Reference value :  1.11273e-09 Reference value :  1.25143e-09 Reference value :  1.42583e-09 Reference value :  1.54413e-09 Reference value :  1.68623e-09 Reference value :  1.81103e-09 Reference value :  1.94483e-09 Reference value :  2.07953e-09 Reference value :  2.23193e-09 Reference value :  2.36553e-09 Reference value :  2.50713e-09 Reference value :  2.62223e-09 Reference value :  2.75653e-09 Reference value :  2.88973e-09 Reference value :  3.04703e-09 Reference value :  3.19953e-09 Reference value :  3.33503e-09 Reference value :  3.47953e-09 Reference value :  3.58633e-09 Reference value :  3.68163e-09 Reference value :  3.80133e-09 Reference value :  3.93393e-09 Reference value :  4.05853e-09 Reference value :  4.16733e-09 Reference value :  4.31033e-09 Reference value :  4.41113e-09 Reference value :  4.49013e-09 Reference value :  4.61213e-09 Reference value :  4.73493e-09 Reference value :  4.87403e-09
No. of Data Rows : 50008
Note: Simulation executed from .control section 


Note: Compatibility modes selected: hs a


Circuit: ** sch_path: /home/bmott/tt_relative_path_test/xsch/tb/ringosc/ringosc_tb_mc.sch

option SCALE: Scale is set to 1e-06 for instance and model parameters
option SCALE: Scale is set to 1e-06 for instance and model parameters
option SCALE: Scale is set to 1e-06 for instance and model parameters
option SCALE: Scale is set to 1e-06 for instance and model parameters
Doing analysis at TEMP = 27.000000 and TNOM = 27.000000

Using KLU as Direct Linear Solver
 Reference value :  0.00000e+00 Reference value :  1.09928e-10 Reference value :  2.82028e-10 Reference value :  4.21228e-10 Reference value :  5.49928e-10 Reference value :  6.97628e-10 Reference value :  8.50428e-10 Reference value :  9.79528e-10 Reference value :  1.09033e-09 Reference value :  1.19803e-09 Reference value :  1.31113e-09 Reference value :  1.44623e-09 Reference value :  1.61673e-09 Reference value :  1.77583e-09 Reference value :  1.93213e-09 Reference value :  2.07933e-09 Reference value :  2.21083e-09 Reference value :  2.33813e-09 Reference value :  2.45883e-09 Reference value :  2.57213e-09 Reference value :  2.71523e-09 Reference value :  2.84583e-09 Reference value :  2.95583e-09 Reference value :  3.08083e-09 Reference value :  3.20943e-09 Reference value :  3.33423e-09 Reference value :  3.46403e-09 Reference value :  3.59223e-09 Reference value :  3.72283e-09 Reference value :  3.86343e-09 Reference value :  3.98753e-09 Reference value :  4.13323e-09 Reference value :  4.25023e-09 Reference value :  4.39303e-09 Reference value :  4.52193e-09 Reference value :  4.65763e-09 Reference value :  4.78963e-09 Reference value :  4.89963e-09
No. of Data Rows : 50008
Note: Simulation executed from .control section 


Note: Compatibility modes selected: hs a


Circuit: ** sch_path: /home/bmott/tt_relative_path_test/xsch/tb/ringosc/ringosc_tb_mc.sch

option SCALE: Scale is set to 1e-06 for instance and model parameters
option SCALE: Scale is set to 1e-06 for instance and model parameters
option SCALE: Scale is set to 1e-06 for instance and model parameters
option SCALE: Scale is set to 1e-06 for instance and model parameters
Doing analysis at TEMP = 27.000000 and TNOM = 27.000000

Using KLU as Direct Linear Solver
 Reference value :  0.00000e+00 Reference value :  6.75280e-11 Reference value :  2.16428e-10 Reference value :  3.43928e-10 Reference value :  4.38528e-10 Reference value :  5.70828e-10 Reference value :  7.17728e-10 Reference value :  8.73028e-10 Reference value :  9.98628e-10 Reference value :  1.11433e-09 Reference value :  1.25823e-09 Reference value :  1.36703e-09 Reference value :  1.54203e-09 Reference value :  1.67293e-09 Reference value :  1.80113e-09 Reference value :  1.93213e-09 Reference value :  2.07603e-09 Reference value :  2.22153e-09 Reference value :  2.37953e-09 Reference value :  2.54053e-09 Reference value :  2.68443e-09 Reference value :  2.82023e-09 Reference value :  2.97683e-09 Reference value :  3.11703e-09 Reference value :  3.26253e-09 Reference value :  3.40273e-09 Reference value :  3.54043e-09 Reference value :  3.68233e-09 Reference value :  3.79773e-09 Reference value :  3.94653e-09 Reference value :  4.10683e-09 Reference value :  4.25793e-09 Reference value :  4.41443e-09 Reference value :  4.57003e-09 Reference value :  4.73293e-09 Reference value :  4.90393e-09
No. of Data Rows : 50008
Note: Simulation executed from .control section 


Note: Compatibility modes selected: hs a


Circuit: ** sch_path: /home/bmott/tt_relative_path_test/xsch/tb/ringosc/ringosc_tb_mc.sch

option SCALE: Scale is set to 1e-06 for instance and model parameters
option SCALE: Scale is set to 1e-06 for instance and model parameters
option SCALE: Scale is set to 1e-06 for instance and model parameters
option SCALE: Scale is set to 1e-06 for instance and model parameters
Doing analysis at TEMP = 27.000000 and TNOM = 27.000000

Using KLU as Direct Linear Solver
 Reference value :  0.00000e+00 Reference value :  8.52280e-11 Reference value :  2.18628e-10 Reference value :  3.57928e-10 Reference value :  4.86728e-10 Reference value :  6.10628e-10 Reference value :  7.32828e-10 Reference value :  8.25328e-10 Reference value :  9.47628e-10 Reference value :  1.06973e-09 Reference value :  1.18783e-09 Reference value :  1.30403e-09 Reference value :  1.45353e-09 Reference value :  1.57163e-09 Reference value :  1.70443e-09 Reference value :  1.84803e-09 Reference value :  1.97803e-09 Reference value :  2.09823e-09 Reference value :  2.19113e-09 Reference value :  2.30513e-09 Reference value :  2.44813e-09 Reference value :  2.60783e-09 Reference value :  2.74923e-09 Reference value :  2.87123e-09 Reference value :  3.00363e-09 Reference value :  3.15943e-09 Reference value :  3.31573e-09 Reference value :  3.45593e-09 Reference value :  3.60623e-09 Reference value :  3.74063e-09 Reference value :  3.90163e-09 Reference value :  4.02863e-09 Reference value :  4.17723e-09 Reference value :  4.32493e-09 Reference value :  4.48263e-09 Reference value :  4.62933e-09 Reference value :  4.75783e-09 Reference value :  4.87903e-09
No. of Data Rows : 50008
Note: Simulation executed from .control section 


Note: Compatibility modes selected: hs a


Circuit: ** sch_path: /home/bmott/tt_relative_path_test/xsch/tb/ringosc/ringosc_tb_mc.sch

option SCALE: Scale is set to 1e-06 for instance and model parameters
option SCALE: Scale is set to 1e-06 for instance and model parameters
option SCALE: Scale is set to 1e-06 for instance and model parameters
option SCALE: Scale is set to 1e-06 for instance and model parameters
Doing analysis at TEMP = 27.000000 and TNOM = 27.000000

Using KLU as Direct Linear Solver
 Reference value :  0.00000e+00 Reference value :  1.61428e-10 Reference value :  3.15228e-10 Reference value :  4.40128e-10 Reference value :  5.86328e-10 Reference value :  7.40028e-10 Reference value :  8.82628e-10 Reference value :  9.92128e-10 Reference value :  1.16793e-09 Reference value :  1.28683e-09 Reference value :  1.42863e-09 Reference value :  1.55363e-09 Reference value :  1.69953e-09 Reference value :  1.82123e-09 Reference value :  1.97473e-09 Reference value :  2.10463e-09 Reference value :  2.23633e-09 Reference value :  2.36953e-09 Reference value :  2.52593e-09 Reference value :  2.67473e-09 Reference value :  2.83763e-09 Reference value :  2.99533e-09 Reference value :  3.15443e-09 Reference value :  3.31693e-09 Reference value :  3.45743e-09 Reference value :  3.59803e-09 Reference value :  3.72873e-09 Reference value :  3.87203e-09 Reference value :  4.01033e-09 Reference value :  4.16493e-09 Reference value :  4.27593e-09 Reference value :  4.44943e-09 Reference value :  4.56753e-09 Reference value :  4.70173e-09 Reference value :  4.81013e-09 Reference value :  4.93893e-09
No. of Data Rows : 50008
Note: Simulation executed from .control section 


Note: Compatibility modes selected: hs a


Circuit: ** sch_path: /home/bmott/tt_relative_path_test/xsch/tb/ringosc/ringosc_tb_mc.sch

option SCALE: Scale is set to 1e-06 for instance and model parameters
option SCALE: Scale is set to 1e-06 for instance and model parameters
option SCALE: Scale is set to 1e-06 for instance and model parameters
option SCALE: Scale is set to 1e-06 for instance and model parameters
Doing analysis at TEMP = 27.000000 and TNOM = 27.000000

Using KLU as Direct Linear Solver
 Reference value :  0.00000e+00 Reference value :  1.44028e-10 Reference value :  3.22928e-10 Reference value :  4.88528e-10 Reference value :  6.25528e-10 Reference value :  7.68628e-10 Reference value :  9.34428e-10 Reference value :  1.06693e-09 Reference value :  1.15513e-09 Reference value :  1.23113e-09 Reference value :  1.32113e-09 Reference value :  1.41923e-09 Reference value :  1.53463e-09 Reference value :  1.62713e-09 Reference value :  1.73353e-09 Reference value :  1.83463e-09 Reference value :  1.95533e-09 Reference value :  2.05393e-09 Reference value :  2.16653e-09 Reference value :  2.28383e-09 Reference value :  2.39233e-09 Reference value :  2.49073e-09 Reference value :  2.62183e-09 Reference value :  2.69743e-09 Reference value :  2.78753e-09 Reference value :  2.88953e-09 Reference value :  3.00193e-09 Reference value :  3.09763e-09 Reference value :  3.20173e-09 Reference value :  3.31443e-09 Reference value :  3.43473e-09 Reference value :  3.56083e-09 Reference value :  3.68273e-09 Reference value :  3.78053e-09 Reference value :  3.90373e-09 Reference value :  4.00273e-09 Reference value :  4.11363e-09 Reference value :  4.19853e-09 Reference value :  4.30953e-09 Reference value :  4.42863e-09 Reference value :  4.57613e-09 Reference value :  4.68723e-09 Reference value :  4.81493e-09 Reference value :  4.93013e-09
No. of Data Rows : 50008
Note: Simulation executed from .control section 


Note: Compatibility modes selected: hs a


Circuit: ** sch_path: /home/bmott/tt_relative_path_test/xsch/tb/ringosc/ringosc_tb_mc.sch

option SCALE: Scale is set to 1e-06 for instance and model parameters
option SCALE: Scale is set to 1e-06 for instance and model parameters
option SCALE: Scale is set to 1e-06 for instance and model parameters
option SCALE: Scale is set to 1e-06 for instance and model parameters
Doing analysis at TEMP = 27.000000 and TNOM = 27.000000

Using KLU as Direct Linear Solver
 Reference value :  0.00000e+00 Reference value :  1.94028e-10 Reference value :  3.43228e-10 Reference value :  5.34328e-10 Reference value :  6.84628e-10 Reference value :  8.19028e-10 Reference value :  9.70128e-10 Reference value :  1.10613e-09 Reference value :  1.26683e-09 Reference value :  1.44543e-09 Reference value :  1.60973e-09 Reference value :  1.73613e-09 Reference value :  1.90653e-09 Reference value :  2.04213e-09 Reference value :  2.17973e-09 Reference value :  2.34623e-09 Reference value :  2.48883e-09 Reference value :  2.61513e-09 Reference value :  2.73233e-09 Reference value :  2.86033e-09 Reference value :  2.95533e-09 Reference value :  3.06843e-09 Reference value :  3.20263e-09 Reference value :  3.31693e-09 Reference value :  3.45293e-09 Reference value :  3.58723e-09 Reference value :  3.72253e-09 Reference value :  3.87283e-09 Reference value :  4.00883e-09 Reference value :  4.16843e-09 Reference value :  4.29183e-09 Reference value :  4.40583e-09 Reference value :  4.51633e-09 Reference value :  4.62033e-09 Reference value :  4.75413e-09 Reference value :  4.89273e-09
No. of Data Rows : 50008
Note: Simulation executed from .control section 


Note: Compatibility modes selected: hs a


Circuit: ** sch_path: /home/bmott/tt_relative_path_test/xsch/tb/ringosc/ringosc_tb_mc.sch

option SCALE: Scale is set to 1e-06 for instance and model parameters
option SCALE: Scale is set to 1e-06 for instance and model parameters
option SCALE: Scale is set to 1e-06 for instance and model parameters
option SCALE: Scale is set to 1e-06 for instance and model parameters
Doing analysis at TEMP = 27.000000 and TNOM = 27.000000

Using KLU as Direct Linear Solver
 Reference value :  0.00000e+00 Reference value :  1.43028e-10 Reference value :  2.94328e-10 Reference value :  4.38428e-10 Reference value :  5.59628e-10 Reference value :  7.10328e-10 Reference value :  8.22328e-10 Reference value :  9.65728e-10 Reference value :  1.10243e-09 Reference value :  1.24693e-09 Reference value :  1.35623e-09 Reference value :  1.50833e-09 Reference value :  1.63663e-09 Reference value :  1.75703e-09 Reference value :  1.86263e-09 Reference value :  2.03623e-09 Reference value :  2.19133e-09 Reference value :  2.33753e-09 Reference value :  2.42783e-09 Reference value :  2.59813e-09 Reference value :  2.71713e-09 Reference value :  2.83993e-09 Reference value :  2.97693e-09 Reference value :  3.12283e-09 Reference value :  3.24723e-09 Reference value :  3.39263e-09 Reference value :  3.53353e-09 Reference value :  3.65523e-09 Reference value :  3.73223e-09 Reference value :  3.84023e-09 Reference value :  3.94453e-09 Reference value :  4.06253e-09 Reference value :  4.17953e-09 Reference value :  4.30213e-09 Reference value :  4.41113e-09 Reference value :  4.56403e-09 Reference value :  4.69053e-09 Reference value :  4.81023e-09 Reference value :  4.94593e-09
No. of Data Rows : 50008
Note: Simulation executed from .control section 


Note: Compatibility modes selected: hs a


Circuit: ** sch_path: /home/bmott/tt_relative_path_test/xsch/tb/ringosc/ringosc_tb_mc.sch

option SCALE: Scale is set to 1e-06 for instance and model parameters
option SCALE: Scale is set to 1e-06 for instance and model parameters
option SCALE: Scale is set to 1e-06 for instance and model parameters
option SCALE: Scale is set to 1e-06 for instance and model parameters
Doing analysis at TEMP = 27.000000 and TNOM = 27.000000

Using KLU as Direct Linear Solver
 Reference value :  0.00000e+00 Reference value :  1.03028e-10 Reference value :  2.50728e-10 Reference value :  3.71928e-10 Reference value :  5.07128e-10 Reference value :  6.26628e-10 Reference value :  7.71828e-10 Reference value :  9.01328e-10 Reference value :  1.02863e-09 Reference value :  1.16903e-09 Reference value :  1.33763e-09 Reference value :  1.45323e-09 Reference value :  1.60703e-09 Reference value :  1.75473e-09 Reference value :  1.88403e-09 Reference value :  2.05163e-09 Reference value :  2.19233e-09 Reference value :  2.33063e-09 Reference value :  2.47993e-09 Reference value :  2.64643e-09 Reference value :  2.80493e-09 Reference value :  2.94523e-09 Reference value :  3.11053e-09 Reference value :  3.22423e-09 Reference value :  3.37603e-09 Reference value :  3.49273e-09 Reference value :  3.63083e-09 Reference value :  3.78703e-09 Reference value :  3.95023e-09 Reference value :  4.11433e-09 Reference value :  4.27373e-09 Reference value :  4.44123e-09 Reference value :  4.60923e-09 Reference value :  4.73563e-09 Reference value :  4.86973e-09
No. of Data Rows : 50008
Note: Simulation executed from .control section 


Note: Compatibility modes selected: hs a


Circuit: ** sch_path: /home/bmott/tt_relative_path_test/xsch/tb/ringosc/ringosc_tb_mc.sch

option SCALE: Scale is set to 1e-06 for instance and model parameters
option SCALE: Scale is set to 1e-06 for instance and model parameters
option SCALE: Scale is set to 1e-06 for instance and model parameters
option SCALE: Scale is set to 1e-06 for instance and model parameters
Doing analysis at TEMP = 27.000000 and TNOM = 27.000000

Using KLU as Direct Linear Solver
 Reference value :  0.00000e+00 Reference value :  1.89128e-10 Reference value :  3.52428e-10 Reference value :  5.12928e-10 Reference value :  6.61428e-10 Reference value :  7.88528e-10 Reference value :  9.36728e-10 Reference value :  1.10123e-09 Reference value :  1.21303e-09 Reference value :  1.33413e-09 Reference value :  1.45833e-09 Reference value :  1.62313e-09 Reference value :  1.77203e-09 Reference value :  1.93123e-09 Reference value :  2.06013e-09 Reference value :  2.20573e-09 Reference value :  2.31413e-09 Reference value :  2.44173e-09 Reference value :  2.56363e-09 Reference value :  2.69133e-09 Reference value :  2.81573e-09 Reference value :  2.97373e-09 Reference value :  3.12963e-09 Reference value :  3.28623e-09 Reference value :  3.43443e-09 Reference value :  3.58893e-09 Reference value :  3.70623e-09 Reference value :  3.82143e-09 Reference value :  3.93603e-09 Reference value :  4.09683e-09 Reference value :  4.22653e-09 Reference value :  4.34233e-09 Reference value :  4.48163e-09 Reference value :  4.60303e-09 Reference value :  4.71903e-09 Reference value :  4.82713e-09 Reference value :  4.96423e-09
No. of Data Rows : 50008
Note: Simulation executed from .control section 


Note: Compatibility modes selected: hs a


Circuit: ** sch_path: /home/bmott/tt_relative_path_test/xsch/tb/ringosc/ringosc_tb_mc.sch

option SCALE: Scale is set to 1e-06 for instance and model parameters
option SCALE: Scale is set to 1e-06 for instance and model parameters
option SCALE: Scale is set to 1e-06 for instance and model parameters
option SCALE: Scale is set to 1e-06 for instance and model parameters
Doing analysis at TEMP = 27.000000 and TNOM = 27.000000

Using KLU as Direct Linear Solver
 Reference value :  0.00000e+00 Reference value :  1.05828e-10 Reference value :  2.70828e-10 Reference value :  4.14828e-10 Reference value :  5.60128e-10 Reference value :  6.99928e-10 Reference value :  7.97228e-10 Reference value :  9.50128e-10 Reference value :  1.09323e-09 Reference value :  1.24193e-09 Reference value :  1.42593e-09 Reference value :  1.56833e-09 Reference value :  1.70363e-09 Reference value :  1.84833e-09 Reference value :  1.98643e-09 Reference value :  2.11973e-09 Reference value :  2.27893e-09 Reference value :  2.42633e-09 Reference value :  2.58933e-09 Reference value :  2.74893e-09 Reference value :  2.90393e-09 Reference value :  2.99363e-09 Reference value :  3.16273e-09 Reference value :  3.30263e-09 Reference value :  3.43843e-09 Reference value :  3.57883e-09 Reference value :  3.75263e-09 Reference value :  3.92063e-09 Reference value :  4.08713e-09 Reference value :  4.24983e-09 Reference value :  4.40753e-09 Reference value :  4.55793e-09 Reference value :  4.69173e-09 Reference value :  4.80333e-09 Reference value :  4.95123e-09
No. of Data Rows : 50008
Note: Simulation executed from .control section 


Note: Compatibility modes selected: hs a


Circuit: ** sch_path: /home/bmott/tt_relative_path_test/xsch/tb/ringosc/ringosc_tb_mc.sch

option SCALE: Scale is set to 1e-06 for instance and model parameters
option SCALE: Scale is set to 1e-06 for instance and model parameters
option SCALE: Scale is set to 1e-06 for instance and model parameters
option SCALE: Scale is set to 1e-06 for instance and model parameters
Doing analysis at TEMP = 27.000000 and TNOM = 27.000000

Using KLU as Direct Linear Solver
 Reference value :  0.00000e+00 Reference value :  2.04428e-10 Reference value :  4.20828e-10 Reference value :  5.91128e-10 Reference value :  8.00028e-10 Reference value :  1.00093e-09 Reference value :  1.21613e-09 Reference value :  1.41113e-09 Reference value :  1.61813e-09 Reference value :  1.76193e-09 Reference value :  1.93213e-09 Reference value :  2.11753e-09 Reference value :  2.30743e-09 Reference value :  2.49633e-09 Reference value :  2.69823e-09 Reference value :  2.86783e-09 Reference value :  3.05773e-09 Reference value :  3.23643e-09 Reference value :  3.41783e-09 Reference value :  3.58713e-09 Reference value :  3.75173e-09 Reference value :  3.93413e-09 Reference value :  4.12303e-09 Reference value :  4.30173e-09 Reference value :  4.49003e-09 Reference value :  4.65513e-09 Reference value :  4.84923e-09
No. of Data Rows : 50008
Note: Simulation executed from .control section 

