
Note: No compatibility mode selected!


Circuit: ** sch_path: /home/bmott/tt_relative_path_test/xsch/tb/ringosc/ringosc_tb_mc.sch

Doing analysis at TEMP = 27.000000 and TNOM = 27.000000

Using SPARSE 1.3 as Direct Linear Solver

Initial Transient Solution
--------------------------

Node                                   Voltage
----                                   -------
x1.net1                                0.83913
out                                   0.814275
net1                                       1.8
x1.net2                               0.812169
v1#branch                         -5.46721e-05

 Reference value :  0.00000e+00 Reference value :  3.63280e-11 Reference value :  3.88280e-11 Reference value :  5.57280e-11 Reference value :  5.58280e-11 Reference value :  5.92280e-11 Reference value :  5.98280e-11 Reference value :  6.00280e-11 Reference value :  6.02280e-11 Reference value :  6.04280e-11 Reference value :  6.05280e-11 Reference value :  6.06280e-11 Reference value :  6.07280e-11 Reference value :  6.09280e-11 Reference value :  6.11280e-11 Reference value :  6.16280e-11 Reference value :  6.65280e-11 Reference value :  6.66280e-11 Reference value :  6.95280e-11 Reference value :  1.02228e-10 Reference value :  1.02428e-10 Reference value :  1.02628e-10 Reference value :  1.03728e-10 Reference value :  1.51628e-10 Reference value :  1.51828e-10 Reference value :  1.52028e-10 Reference value :  1.52228e-10 Reference value :  1.52428e-10 Reference value :  1.54128e-10 Reference value :  1.54328e-10 Reference value :  1.54628e-10 Reference value :  1.54828e-10 Reference value :  1.55028e-10 Reference value :  1.55628e-10 Reference value :  1.55928e-10 Reference value :  1.56128e-10 Reference value :  1.56328e-10 Reference value :  1.56728e-10 Reference value :  1.61428e-10 Reference value :  1.65528e-10 Reference value :  1.66828e-10 Reference value :  1.66928e-10 Reference value :  1.89228e-10 Reference value :  1.91528e-10 Reference value :  2.06528e-10 Reference value :  2.26128e-10 Reference value :  2.26328e-10 Reference value :  2.26528e-10 Reference value :  2.26728e-10 Reference value :  2.26928e-10 Reference value :  2.27128e-10 Reference value :  2.27328e-10 Reference value :  2.27528e-10 Reference value :  2.27728e-10 Reference value :  2.27928e-10 Reference value :  2.28128e-10 Reference value :  2.28328e-10 Reference value :  2.28628e-10 Reference value :  2.28828e-10 Reference value :  2.29028e-10 Reference value :  2.29228e-10 Reference value :  2.29428e-10 Reference value :  2.29528e-10 Reference value :  2.29628e-10 Reference value :  2.29828e-10 Reference value :  2.30028e-10 Reference value :  2.30228e-10 Reference value :  2.30328e-10 Reference value :  2.36128e-10 Reference value :  2.77828e-10 Reference value :  2.78028e-10 Reference value :  2.78228e-10 Reference value :  2.82228e-10 Reference value :  2.82328e-10 Reference value :  2.82528e-10 Reference value :  2.82728e-10 Reference value :  2.85828e-10 Reference value :  2.86028e-10 Reference value :  2.86228e-10 Reference value :  2.86328e-10 Reference value :  2.86428e-10 Reference value :  2.86528e-10 Reference value :  2.86628e-10 Reference value :  2.86728e-10 Reference value :  2.86928e-10 Reference value :  2.87028e-10 Reference value :  2.87128e-10 Reference value :  2.87228e-10 Reference value :  2.87328e-10 Reference value :  2.87528e-10 Reference value :  2.87728e-10 Reference value :  2.87928e-10 Reference value :  2.88128e-10 Reference value :  2.91328e-10 Reference value :  2.91428e-10 Reference value :  2.91628e-10 Reference value :  2.91728e-10 Reference value :  2.91828e-10 Reference value :  2.91928e-10 Reference value :  2.92028e-10 Reference value :  2.92128e-10 Reference value :  2.92328e-10 Reference value :  2.92428e-10 Reference value :  2.93328e-10 Reference value :  2.93528e-10 Reference value :  2.93728e-10 Reference value :  2.93928e-10 Reference value :  2.94128e-10 Reference value :  2.94328e-10 Reference value :  2.94528e-10 Reference value :  2.94728e-10 Reference value :  2.94928e-10 Reference value :  2.95128e-10 Reference value :  2.95328e-10 Reference value :  2.95528e-10 Reference value :  2.95628e-10 Reference value :  2.95828e-10 Reference value :  2.96028e-10 Reference value :  3.03128e-10 Reference value :  3.41228e-10 Reference value :  3.41628e-10 Reference value :  3.44728e-10 Reference value :  3.94428e-10 Reference value :  3.95428e-10 Reference value :  4.47228e-10 Reference value :  4.49128e-10 Reference value :  4.49328e-10 Reference value :  4.49528e-10 Reference value :  4.49728e-10 Reference value :  4.49928e-10 Reference value :  4.50128e-10 Reference value :  4.50228e-10 Reference value :  4.50428e-10 Reference value :  4.50528e-10 Reference value :  4.50728e-10 Reference value :  4.50828e-10 Reference value :  4.51028e-10 Reference value :  4.51228e-10 Reference value :  4.78028e-10 Reference value :  4.78228e-10 Reference value :  4.78428e-10 Reference value :  4.78628e-10 Reference value :  4.78828e-10 Reference value :  4.79028e-10 Reference value :  4.80928e-10 Reference value :  5.22628e-10 Reference value :  5.53628e-10 Reference value :  6.08228e-10 Reference value :  6.08428e-10 Reference value :  6.08628e-10 Reference value :  6.08828e-10 Reference value :  6.09028e-10 Reference value :  6.15528e-10 Reference value :  6.15628e-10 Reference value :  6.40728e-10 Reference value :  6.72828e-10 Reference value :  6.73028e-10 Reference value :  6.73228e-10 Reference value :  6.76128e-10 Reference value :  6.76328e-10 Reference value :  6.76428e-10 Reference value :  6.76528e-10 Reference value :  6.76628e-10 Reference value :  6.76828e-10 Reference value :  6.77028e-10 Reference value :  6.77128e-10 Reference value :  6.77228e-10 Reference value :  6.77428e-10 Reference value :  7.32728e-10 Reference value :  7.34228e-10 Reference value :  7.34428e-10 Reference value :  7.95628e-10 Reference value :  7.95728e-10 Reference value :  7.95928e-10 Reference value :  7.96028e-10 Reference value :  7.96128e-10 Reference value :  7.96328e-10 Reference value :  7.96428e-10 Reference value :  7.96528e-10 Reference value :  7.96728e-10 Reference value :  7.96928e-10 Reference value :  7.97028e-10 Reference value :  7.97128e-10 Reference value :  7.97228e-10 Reference value :  7.97328e-10 Reference value :  7.97528e-10 Reference value :  7.97728e-10 Reference value :  7.97928e-10 Reference value :  7.98128e-10 Reference value :  8.36828e-10 Reference value :  8.37028e-10 Reference value :  8.37228e-10 Reference value :  8.37428e-10 Reference value :  8.37728e-10 Reference value :  8.37928e-10 Reference value :  8.65728e-10 Reference value :  8.65928e-10 Reference value :  8.66028e-10 Reference value :  8.66228e-10 Reference value :  8.66328e-10 Reference value :  8.66428e-10 Reference value :  8.66528e-10 Reference value :  8.66728e-10 Reference value :  8.66928e-10 Reference value :  8.67028e-10 Reference value :  8.67128e-10 Reference value :  8.67228e-10 Reference value :  8.67328e-10 Reference value :  8.67528e-10 Reference value :  8.67728e-10 Reference value :  8.67928e-10 Reference value :  8.68028e-10 Reference value :  8.68228e-10 Reference value :  8.68328e-10 Reference value :  8.68528e-10 Reference value :  8.68728e-10 Reference value :  8.68828e-10 Reference value :  8.69028e-10 Reference value :  8.69128e-10 Reference value :  8.69228e-10 Reference value :  8.69328e-10 Reference value :  8.69428e-10 Reference value :  8.69628e-10 Reference value :  8.69728e-10 Reference value :  8.69828e-10 Reference value :  8.69928e-10 Reference value :  8.85028e-10 Reference value :  8.85228e-10 Reference value :  8.85928e-10 Reference value :  8.86128e-10 Reference value :  8.86328e-10 Reference value :  8.86528e-10 Reference value :  8.86728e-10 Reference value :  8.86928e-10 Reference value :  8.87128e-10 Reference value :  8.87328e-10 Reference value :  8.87428e-10 Reference value :  8.87528e-10 Reference value :  8.87628e-10 Reference value :  8.87728e-10 Reference value :  8.87828e-10 Reference value :  8.87928e-10 Reference value :  8.88028e-10 Reference value :  8.88128e-10 Reference value :  8.88228e-10 Reference value :  8.88328e-10 Reference value :  8.88428e-10 Reference value :  8.88628e-10 Reference value :  8.88728e-10 Reference value :  8.88828e-10 Reference value :  8.88928e-10 Reference value :  8.89028e-10 Reference value :  8.89228e-10 Reference value :  8.89428e-10 Reference value :  8.89628e-10 Reference value :  8.89928e-10 Reference value :  8.90128e-10 Reference value :  9.03028e-10 Reference value :  9.03228e-10 Reference value :  9.03428e-10 Reference value :  9.03628e-10 Reference value :  9.03828e-10 Reference value :  9.06528e-10 Reference value :  9.06728e-10 Reference value :  9.06928e-10 Reference value :  9.15728e-10 Reference value :  9.54328e-10 Reference value :  9.54428e-10 Reference value :  9.54528e-10 Reference value :  9.54628e-10 Reference value :  9.54828e-10 Reference value :  9.55028e-10 Reference value :  9.55128e-10 Reference value :  9.55228e-10 Reference value :  9.55428e-10 Reference value :  9.58428e-10 Reference value :  9.58528e-10 Reference value :  9.58628e-10 Reference value :  9.58828e-10 Reference value :  9.59028e-10 Reference value :  9.59228e-10 Reference value :  9.59328e-10 Reference value :  9.59528e-10 Reference value :  9.59728e-10 Reference value :  9.59828e-10 Reference value :  9.59928e-10 Reference value :  9.60128e-10 Reference value :  9.60328e-10 Reference value :  9.60428e-10 Reference value :  9.60628e-10 Reference value :  9.60728e-10 Reference value :  9.60828e-10 Reference value :  9.60928e-10 Reference value :  9.61028e-10 Reference value :  9.61128e-10 Reference value :  9.61328e-10 Reference value :  9.61528e-10 Reference value :  9.61928e-10 Reference value :  9.83928e-10 Reference value :  9.84128e-10 Reference value :  9.84328e-10 Reference value :  9.84428e-10 Reference value :  9.84628e-10 Reference value :  9.84728e-10 Reference value :  9.84928e-10 Reference value :  9.85028e-10 Reference value :  9.85228e-10 Reference value :  9.87528e-10 Reference value :  9.87728e-10 Reference value :  9.87928e-10 Reference value :  9.88028e-10 Reference value :  9.88228e-10 Reference value :  9.95828e-10 Reference value :  9.96028e-10 Reference value :  9.96228e-10 Reference value :  9.96328e-10 Reference value :  9.96428e-10 Reference value :  9.96628e-10 Reference value :  9.96728e-10 Reference value :  9.96828e-10 Reference value :  9.96928e-10 Reference value :  9.97128e-10 Reference value :  9.97328e-10 Reference value :  9.97528e-10 Reference value :  9.97728e-10 Reference value :  9.97828e-10 Reference value :  1.03543e-09 Reference value :  1.03683e-09 Reference value :  1.03703e-09 Reference value :  1.03713e-09 Reference value :  1.03733e-09 Reference value :  1.03753e-09 Reference value :  1.03773e-09 Reference value :  1.07153e-09 Reference value :  1.10123e-09 Reference value :  1.10143e-09 Reference value :  1.10163e-09 Reference value :  1.13823e-09 Reference value :  1.13853e-09 Reference value :  1.13873e-09 Reference value :  1.13893e-09 Reference value :  1.13913e-09 Reference value :  1.13933e-09 Reference value :  1.13953e-09 Reference value :  1.17473e-09 Reference value :  1.17483e-09 Reference value :  1.17503e-09 Reference value :  1.17513e-09 Reference value :  1.17523e-09 Reference value :  1.17533e-09 Reference value :  1.17543e-09 Reference value :  1.18403e-09 Reference value :  1.18413e-09 Reference value :  1.18433e-09 Reference value :  1.18453e-09 Reference value :  1.18473e-09 Reference value :  1.18493e-09 Reference value :  1.18513e-09 Reference value :  1.18533e-09 Reference value :  1.18553e-09 Reference value :  1.23343e-09 Reference value :  1.28813e-09 Reference value :  1.32493e-09 Reference value :  1.35243e-09 Reference value :  1.35263e-09 Reference value :  1.35283e-09 Reference value :  1.36373e-09 Reference value :  1.36393e-09 Reference value :  1.36413e-09 Reference value :  1.36663e-09 Reference value :  1.36673e-09 Reference value :  1.39633e-09 Reference value :  1.39653e-09 Reference value :  1.43713e-09 Reference value :  1.46803e-09 Reference value :  1.46823e-09 Reference value :  1.46843e-09 Reference value :  1.46873e-09 Reference value :  1.46893e-09 Reference value :  1.46913e-09 Reference value :  1.51973e-09 Reference value :  1.51993e-09 Reference value :  1.52013e-09 Reference value :  1.52023e-09 Reference value :  1.52033e-09 Reference value :  1.52053e-09 Reference value :  1.52433e-09 Reference value :  1.52453e-09 Reference value :  1.52473e-09 Reference value :  1.52493e-09 Reference value :  1.52523e-09 Reference value :  1.52543e-09 Reference value :  1.52553e-09 Reference value :  1.55893e-09 Reference value :  1.56543e-09 Reference value :  1.56563e-09 Reference value :  1.56783e-09 Reference value :  1.56803e-09 Reference value :  1.56823e-09 Reference value :  1.56833e-09 Reference value :  1.56843e-09 Reference value :  1.57323e-09 Reference value :  1.57333e-09 Reference value :  1.57353e-09 Reference value :  1.57373e-09 Reference value :  1.57393e-09 Reference value :  1.57413e-09 Reference value :  1.57423e-09 Reference value :  1.57443e-09 Reference value :  1.57463e-09 Reference value :  1.57483e-09 Reference value :  1.60203e-09 Reference value :  1.62833e-09 Reference value :  1.62853e-09 Reference value :  1.67873e-09 Reference value :  1.67893e-09 Reference value :  1.67913e-09 Reference value :  1.71783e-09 Reference value :  1.74043e-09 Reference value :  1.74063e-09 Reference value :  1.74263e-09 Reference value :  1.74703e-09 Reference value :  1.74723e-09 Reference value :  1.74743e-09 Reference value :  1.74753e-09 Reference value :  1.74773e-09 Reference value :  1.74793e-09 Reference value :  1.74803e-09 Reference value :  1.74823e-09 Reference value :  1.74843e-09 Reference value :  1.75283e-09 Reference value :  1.75303e-09 Reference value :  1.75323e-09 Reference value :  1.75343e-09 Reference value :  1.75353e-09 Reference value :  1.75373e-09 Reference value :  1.75393e-09 Reference value :  1.75413e-09 Reference value :  1.75423e-09 Reference value :  1.75443e-09 Reference value :  1.75463e-09 Reference value :  1.75483e-09 Reference value :  1.75503e-09 Reference value :  1.75523e-09 Reference value :  1.76013e-09 Reference value :  1.80173e-09 Reference value :  1.80193e-09 Reference value :  1.81023e-09 Reference value :  1.85373e-09 Reference value :  1.85703e-09 Reference value :  1.85893e-09 Reference value :  1.86203e-09 Reference value :  1.86833e-09 Reference value :  1.86853e-09 Reference value :  1.86863e-09 Reference value :  1.87093e-09 Reference value :  1.87103e-09 Reference value :  1.87113e-09 Reference value :  1.87123e-09 Reference value :  1.87133e-09 Reference value :  1.87143e-09 Reference value :  1.87153e-09 Reference value :  1.87853e-09 Reference value :  1.88203e-09 Reference value :  1.88223e-09 Reference value :  1.88233e-09 Reference value :  1.88243e-09 Reference value :  1.88253e-09 Reference value :  1.88273e-09 Reference value :  1.88283e-09 Reference value :  1.88303e-09 Reference value :  1.88313e-09 Reference value :  1.88323e-09 Reference value :  1.88333e-09 Reference value :  1.88343e-09 Reference value :  1.89593e-09 Reference value :  1.89833e-09 Reference value :  1.89853e-09 Reference value :  1.89873e-09 Reference value :  1.89893e-09 Reference value :  1.89913e-09 Reference value :  1.89923e-09 Reference value :  1.89943e-09 Reference value :  1.90013e-09 Reference value :  1.90033e-09 Reference value :  1.90043e-09 Reference value :  1.90063e-09 Reference value :  1.90083e-09 Reference value :  1.90103e-09 Reference value :  1.90123e-09 Reference value :  1.90143e-09 Reference value :  1.90163e-09 Reference value :  1.90183e-09 Reference value :  1.90213e-09 Reference value :  1.90233e-09 Reference value :  1.90253e-09 Reference value :  1.90273e-09 Reference value :  1.90293e-09 Reference value :  1.94273e-09 Reference value :  1.94293e-09 Reference value :  1.94323e-09 Reference value :  1.94343e-09 Reference value :  1.96573e-09 Reference value :  1.96593e-09 Reference value :  1.96613e-09 Reference value :  1.96623e-09 Reference value :  1.96643e-09 Reference value :  1.99233e-09 Reference value :  1.99803e-09 Reference value :  1.99813e-09 Reference value :  2.00373e-09 Reference value :  2.00393e-09 Reference value :  2.00403e-09 Reference value :  2.00423e-09 Reference value :  2.00443e-09 Reference value :  2.00463e-09 Reference value :  2.00483e-09 Reference value :  2.00503e-09 Reference value :  2.00523e-09 Reference value :  2.00543e-09 Reference value :  2.00563e-09 Reference value :  2.00583e-09 Reference value :  2.05503e-09 Reference value :  2.07573e-09 Reference value :  2.07593e-09 Reference value :  2.07613e-09 Reference value :  2.07733e-09 Reference value :  2.08813e-09 Reference value :  2.10193e-09 Reference value :  2.10853e-09 Reference value :  2.10863e-09 Reference value :  2.10883e-09 Reference value :  2.10893e-09 Reference value :  2.10903e-09 Reference value :  2.10913e-09 Reference value :  2.10923e-09 Reference value :  2.10933e-09 Reference value :  2.10943e-09 Reference value :  2.10953e-09 Reference value :  2.10963e-09 Reference value :  2.10983e-09 Reference value :  2.10993e-09 Reference value :  2.11003e-09 Reference value :  2.11023e-09 Reference value :  2.11043e-09 Reference value :  2.11063e-09 Reference value :  2.11083e-09 Reference value :  2.11103e-09 Reference value :  2.12183e-09 Reference value :  2.12203e-09 Reference value :  2.12223e-09 Reference value :  2.12283e-09 Reference value :  2.12293e-09 Reference value :  2.12313e-09 Reference value :  2.12333e-09 Reference value :  2.13123e-09 Reference value :  2.13143e-09 Reference value :  2.13493e-09 Reference value :  2.13673e-09 Reference value :  2.16863e-09 Reference value :  2.16963e-09 Reference value :  2.16973e-09 Reference value :  2.16993e-09 Reference value :  2.17003e-09 Reference value :  2.17013e-09 Reference value :  2.17033e-09 Reference value :  2.17043e-09 Reference value :  2.17053e-09 Reference value :  2.17073e-09 Reference value :  2.17093e-09 Reference value :  2.17113e-09 Reference value :  2.17133e-09 Reference value :  2.17153e-09 Reference value :  2.17263e-09 Reference value :  2.17283e-09 Reference value :  2.17303e-09 Reference value :  2.17323e-09 Reference value :  2.17343e-09 Reference value :  2.17363e-09 Reference value :  2.17383e-09 Reference value :  2.25343e-09 Reference value :  2.25363e-09 Reference value :  2.30753e-09 Reference value :  2.30773e-09 Reference value :  2.30793e-09 Reference value :  2.30813e-09 Reference value :  2.30823e-09 Reference value :  2.30843e-09 Reference value :  2.30863e-09 Reference value :  2.30883e-09 Reference value :  2.30903e-09 Reference value :  2.30913e-09 Reference value :  2.30933e-09 Reference value :  2.31433e-09 Reference value :  2.31453e-09 Reference value :  2.31473e-09 Reference value :  2.31493e-09 Reference value :  2.31513e-09 Reference value :  2.31523e-09 Reference value :  2.31543e-09 Reference value :  2.31553e-09 Reference value :  2.31563e-09 Reference value :  2.32563e-09 Reference value :  2.32843e-09 Reference value :  2.32853e-09 Reference value :  2.33103e-09 Reference value :  2.33113e-09 Reference value :  2.33133e-09 Reference value :  2.33143e-09 Reference value :  2.33163e-09 Reference value :  2.33173e-09 Reference value :  2.33183e-09 Reference value :  2.33813e-09 Reference value :  2.38463e-09 Reference value :  2.38473e-09 Reference value :  2.38483e-09 Reference value :  2.38493e-09 Reference value :  2.38503e-09 Reference value :  2.38523e-09 Reference value :  2.38543e-09 Reference value :  2.38553e-09 Reference value :  2.38583e-09 Reference value :  2.39423e-09 Reference value :  2.39433e-09 Reference value :  2.39453e-09 Reference value :  2.39473e-09 Reference value :  2.39493e-09 Reference value :  2.39513e-09 Reference value :  2.39533e-09 Reference value :  2.39553e-09 Reference value :  2.39563e-09 Reference value :  2.39583e-09 Reference value :  2.39593e-09 Reference value :  2.39603e-09 Reference value :  2.39613e-09 Reference value :  2.39623e-09 Reference value :  2.39643e-09 Reference value :  2.39663e-09 Reference value :  2.39683e-09 Reference value :  2.39703e-09 Reference value :  2.39723e-09 Reference value :  2.39733e-09 Reference value :  2.39753e-09 Reference value :  2.39773e-09 Reference value :  2.39783e-09 Reference value :  2.39793e-09 Reference value :  2.41463e-09 Reference value :  2.41583e-09 Reference value :  2.41593e-09 Reference value :  2.41613e-09 Reference value :  2.41773e-09 Reference value :  2.41783e-09 Reference value :  2.41803e-09 Reference value :  2.41813e-09 Reference value :  2.41823e-09 Reference value :  2.41843e-09 Reference value :  2.41863e-09 Reference value :  2.41883e-09 Reference value :  2.41903e-09 Reference value :  2.41923e-09 Reference value :  2.41943e-09 Reference value :  2.41953e-09 Reference value :  2.41973e-09 Reference value :  2.41983e-09 Reference value :  2.42453e-09 Reference value :  2.42463e-09 Reference value :  2.42473e-09 Reference value :  2.42493e-09 Reference value :  2.42513e-09 Reference value :  2.42743e-09 Reference value :  2.42753e-09 Reference value :  2.42793e-09 Reference value :  2.42803e-09 Reference value :  2.42823e-09 Reference value :  2.42843e-09 Reference value :  2.42863e-09 Reference value :  2.42883e-09 Reference value :  2.42903e-09 Reference value :  2.42923e-09 Reference value :  2.42943e-09 Reference value :  2.42963e-09 Reference value :  2.42983e-09 Reference value :  2.43273e-09 Reference value :  2.43393e-09 Reference value :  2.43403e-09 Reference value :  2.43413e-09 Reference value :  2.43433e-09 Reference value :  2.43453e-09 Reference value :  2.43463e-09 Reference value :  2.43483e-09 Reference value :  2.43503e-09 Reference value :  2.43513e-09 Reference value :  2.43523e-09 Reference value :  2.43543e-09 Reference value :  2.43563e-09 Reference value :  2.43583e-09 Reference value :  2.43603e-09 Reference value :  2.45483e-09 Reference value :  2.45493e-09 Reference value :  2.45513e-09 Reference value :  2.45583e-09 Reference value :  2.48203e-09 Reference value :  2.50373e-09 Reference value :  2.50393e-09 Reference value :  2.51323e-09 Reference value :  2.51333e-09 Reference value :  2.51343e-09 Reference value :  2.51363e-09 Reference value :  2.51383e-09 Reference value :  2.51403e-09 Reference value :  2.52203e-09 Reference value :  2.52213e-09 Reference value :  2.52223e-09 Reference value :  2.52233e-09 Reference value :  2.52273e-09 Reference value :  2.56923e-09 Reference value :  2.56933e-09 Reference value :  2.56943e-09 Reference value :  2.56953e-09 Reference value :  2.56963e-09 Reference value :  2.56983e-09 Reference value :  2.57003e-09 Reference value :  2.57023e-09 Reference value :  2.57043e-09 Reference value :  2.57063e-09 Reference value :  2.57083e-09 Reference value :  2.57093e-09 Reference value :  2.57103e-09 Reference value :  2.57123e-09 Reference value :  2.57143e-09 Reference value :  2.57163e-09 Reference value :  2.57183e-09 Reference value :  2.57193e-09 Reference value :  2.57203e-09 Reference value :  2.57223e-09 Reference value :  2.57243e-09 Reference value :  2.57253e-09 Reference value :  2.57263e-09 Reference value :  2.57273e-09 Reference value :  2.57283e-09 Reference value :  2.57303e-09 Reference value :  2.57323e-09 Reference value :  2.57343e-09 Reference value :  2.57363e-09 Reference value :  2.57383e-09 Reference value :  2.57403e-09 Reference value :  2.57423e-09 Reference value :  2.57443e-09 Reference value :  2.57453e-09 Reference value :  2.57463e-09 Reference value :  2.57483e-09 Reference value :  2.57493e-09 Reference value :  2.57513e-09 Reference value :  2.57533e-09 Reference value :  2.57543e-09 Reference value :  2.57553e-09 Reference value :  2.57573e-09 Reference value :  2.57593e-09 Reference value :  2.57603e-09 Reference value :  2.57623e-09 Reference value :  2.57633e-09 Reference value :  2.57653e-09 Reference value :  2.57673e-09 Reference value :  2.57693e-09 Reference value :  2.57703e-09 Reference value :  2.57723e-09 Reference value :  2.57743e-09 Reference value :  2.57753e-09 Reference value :  2.57763e-09 Reference value :  2.57783e-09 Reference value :  2.57803e-09 Reference value :  2.57813e-09 Reference value :  2.57823e-09 Reference value :  2.57833e-09 Reference value :  2.57843e-09 Reference value :  2.57853e-09 Reference value :  2.57863e-09 Reference value :  2.57873e-09 Reference value :  2.57883e-09 Reference value :  2.57893e-09 Reference value :  2.57913e-09 Reference value :  2.57933e-09 Reference value :  2.57943e-09 Reference value :  2.57963e-09 Reference value :  2.57983e-09 Reference value :  2.58003e-09 Reference value :  2.58013e-09 Reference value :  2.58033e-09 Reference value :  2.58043e-09 Reference value :  2.58063e-09 Reference value :  2.58083e-09 Reference value :  2.62213e-09 Reference value :  2.65243e-09 Reference value :  2.66213e-09 Reference value :  2.66233e-09 Reference value :  2.67063e-09 Reference value :  2.67083e-09 Reference value :  2.67103e-09 Reference value :  2.67113e-09 Reference value :  2.67123e-09 Reference value :  2.67143e-09 Reference value :  2.67163e-09 Reference value :  2.67183e-09 Reference value :  2.67223e-09 Reference value :  2.67243e-09 Reference value :  2.67263e-09 Reference value :  2.67283e-09 Reference value :  2.67303e-09 Reference value :  2.67323e-09 Reference value :  2.67343e-09 Reference value :  2.67363e-09 Reference value :  2.67383e-09 Reference value :  2.67403e-09 Reference value :  2.67423e-09 Reference value :  2.67443e-09 Reference value :  2.67463e-09 Reference value :  2.67483e-09 Reference value :  2.67503e-09 Reference value :  2.67523e-09 Reference value :  2.67543e-09 Reference value :  2.67553e-09 Reference value :  2.67573e-09 Reference value :  2.67593e-09 Reference value :  2.67603e-09 Reference value :  2.67623e-09 Reference value :  2.67633e-09 Reference value :  2.67653e-09 Reference value :  2.67673e-09 Reference value :  2.67693e-09 Reference value :  2.67703e-09 Reference value :  2.67713e-09 Reference value :  2.67723e-09 Reference value :  2.67743e-09 Reference value :  2.67763e-09 Reference value :  2.67773e-09 Reference value :  2.67783e-09 Reference value :  2.67793e-09 Reference value :  2.67803e-09 Reference value :  2.67813e-09 Reference value :  2.67823e-09 Reference value :  2.67833e-09 Reference value :  2.67843e-09 Reference value :  2.67853e-09 Reference value :  2.67863e-09 Reference value :  2.67883e-09 Reference value :  2.67893e-09 Reference value :  2.67903e-09 Reference value :  2.67913e-09 Reference value :  2.68133e-09 Reference value :  2.68153e-09 Reference value :  2.68173e-09 Reference value :  2.68193e-09 Reference value :  2.68213e-09 Reference value :  2.68233e-09 Reference value :  2.68243e-09 Reference value :  2.68253e-09 Reference value :  2.68273e-09 Reference value :  2.68293e-09 Reference value :  2.68313e-09 Reference value :  2.68333e-09 Reference value :  2.68353e-09 Reference value :  2.68373e-09 Reference value :  2.68383e-09 Reference value :  2.68403e-09 Reference value :  2.68413e-09 Reference value :  2.68433e-09 Reference value :  2.68453e-09 Reference value :  2.68473e-09 Reference value :  2.68483e-09 Reference value :  2.68503e-09 Reference value :  2.68523e-09 Reference value :  2.68543e-09 Reference value :  2.68563e-09 Reference value :  2.68573e-09 Reference value :  2.68593e-09 Reference value :  2.68603e-09 Reference value :  2.68623e-09 Reference value :  2.68643e-09 Reference value :  2.68693e-09 Reference value :  2.68833e-09 Reference value :  2.68843e-09 Reference value :  2.69053e-09 Reference value :  2.69223e-09 Reference value :  2.69233e-09 Reference value :  2.69243e-09 Reference value :  2.69253e-09 Reference value :  2.69273e-09 Reference value :  2.69293e-09 Reference value :  2.69453e-09 Reference value :  2.70493e-09 Reference value :  2.71293e-09 Reference value :  2.74803e-09 Reference value :  2.75613e-09 Reference value :  2.75813e-09 Reference value :  2.75833e-09 Reference value :  2.76173e-09 Reference value :  2.76193e-09 Reference value :  2.76203e-09 Reference value :  2.76223e-09 Reference value :  2.76403e-09 Reference value :  2.76423e-09 Reference value :  2.76433e-09 Reference value :  2.76443e-09 Reference value :  2.76463e-09 Reference value :  2.76483e-09 Reference value :  2.76503e-09 Reference value :  2.76513e-09 Reference value :  2.76523e-09 Reference value :  2.76533e-09 Reference value :  2.76553e-09 Reference value :  2.76573e-09 Reference value :  2.80903e-09 Reference value :  2.85393e-09 Reference value :  2.89603e-09 Reference value :  2.89843e-09 Reference value :  2.89853e-09 Reference value :  2.89863e-09 Reference value :  2.93433e-09 Reference value :  2.97823e-09 Reference value :  2.98153e-09 Reference value :  2.98173e-09 Reference value :  2.98193e-09 Reference value :  2.98213e-09 Reference value :  2.98233e-09 Reference value :  2.98243e-09 Reference value :  2.98263e-09 Reference value :  2.98283e-09 Reference value :  2.98303e-09 Reference value :  2.98433e-09 Reference value :  2.98443e-09 Reference value :  2.98463e-09 Reference value :  2.98483e-09 Reference value :  2.98523e-09 Reference value :  2.98543e-09 Reference value :  2.98563e-09 Reference value :  2.98583e-09 Reference value :  2.98593e-09 Reference value :  2.98613e-09 Reference value :  2.99553e-09 Reference value :  2.99573e-09 Reference value :  2.99583e-09 Reference value :  2.99603e-09 Reference value :  2.99623e-09 Reference value :  2.99643e-09 Reference value :  2.99663e-09 Reference value :  2.99683e-09 Reference value :  2.99703e-09 Reference value :  2.99723e-09 Reference value :  2.99743e-09 Reference value :  2.99753e-09 Reference value :  2.99763e-09 Reference value :  2.99773e-09 Reference value :  2.99783e-09 Reference value :  2.99793e-09 Reference value :  2.99803e-09 Reference value :  2.99813e-09 Reference value :  2.99823e-09 Reference value :  2.99833e-09 Reference value :  2.99843e-09 Reference value :  2.99853e-09 Reference value :  2.99863e-09 Reference value :  2.99883e-09 Reference value :  2.99893e-09 Reference value :  2.99913e-09 Reference value :  3.01083e-09 Reference value :  3.08773e-09 Reference value :  3.08793e-09 Reference value :  3.13153e-09 Reference value :  3.13813e-09 Reference value :  3.21333e-09 Reference value :  3.23483e-09 Reference value :  3.26143e-09 Reference value :  3.43873e-09 Reference value :  3.48363e-09 Reference value :  3.52183e-09 Reference value :  3.56383e-09 Reference value :  3.56403e-09 Reference value :  3.56423e-09 Reference value :  3.56443e-09 Reference value :  3.56463e-09 Reference value :  3.56483e-09 Reference value :  3.56503e-09 Reference value :  3.56523e-09 Reference value :  3.57343e-09 Reference value :  3.64533e-09 Reference value :  3.64553e-09 Reference value :  3.65233e-09 Reference value :  3.65253e-09 Reference value :  3.65273e-09 Reference value :  3.66393e-09 Reference value :  3.72963e-09 Reference value :  3.73663e-09 Reference value :  3.74113e-09 Reference value :  3.74543e-09 Reference value :  3.74563e-09 Reference value :  3.80223e-09 Reference value :  3.80243e-09 Reference value :  3.80263e-09 Reference value :  3.80283e-09 Reference value :  3.86283e-09 Reference value :  3.86433e-09 Reference value :  3.86453e-09 Reference value :  3.86463e-09 Reference value :  3.86473e-09 Reference value :  3.86483e-09 Reference value :  3.86493e-09 Reference value :  3.86513e-09 Reference value :  3.86533e-09 Reference value :  3.86553e-09 Reference value :  3.86573e-09 Reference value :  3.86593e-09 Reference value :  3.91543e-09 Reference value :  4.00423e-09 Reference value :  4.00893e-09 Reference value :  4.15253e-09 Reference value :  4.23333e-09 Reference value :  4.33813e-09 Reference value :  4.39393e-09 Reference value :  4.42493e-09 Reference value :  4.42513e-09 Reference value :  4.48713e-09 Reference value :  4.51383e-09 Reference value :  4.51393e-09 Reference value :  4.51413e-09 Reference value :  4.51423e-09 Reference value :  4.51443e-09 Reference value :  4.51463e-09 Reference value :  4.51483e-09 Reference value :  4.52413e-09 Reference value :  4.57173e-09 Reference value :  4.57453e-09 Reference value :  4.61613e-09 Reference value :  4.63913e-09 Reference value :  4.66043e-09 Reference value :  4.66063e-09 Reference value :  4.66083e-09 Reference value :  4.66843e-09 Reference value :  4.82523e-09 Reference value :  4.98833e-09
No. of Data Rows : 50008
Note: Simulation executed from .control section 


Note: No compatibility mode selected!


Circuit: ** sch_path: /home/bmott/tt_relative_path_test/xsch/tb/ringosc/ringosc_tb_mc.sch

Doing analysis at TEMP = 27.000000 and TNOM = 27.000000

Using SPARSE 1.3 as Direct Linear Solver

Initial Transient Solution
--------------------------

Node                                   Voltage
----                                   -------
x1.net1                                0.81974
out                                   0.842545
net1                                       1.8
x1.net2                               0.823558
v1#branch                         -5.33564e-05

 Reference value :  0.00000e+00 Reference value :  1.00000e-15 Reference value :  2.00000e-15 Reference value :  8.00000e-15 Reference value :  3.20000e-14 Reference value :  6.28000e-13 Reference value :  8.28000e-13 Reference value :  3.12800e-12 Reference value :  4.83280e-11 Reference value :  9.16280e-11 Reference value :  1.16128e-10 Reference value :  1.16228e-10 Reference value :  1.16328e-10 Reference value :  1.16428e-10 Reference value :  1.25028e-10 Reference value :  1.26428e-10 Reference value :  1.32528e-10 Reference value :  1.32728e-10 Reference value :  1.32828e-10 Reference value :  1.33028e-10 Reference value :  1.33828e-10 Reference value :  1.34028e-10 Reference value :  1.34128e-10 Reference value :  1.34328e-10 Reference value :  1.34528e-10 Reference value :  1.34728e-10 Reference value :  1.34928e-10 Reference value :  1.69928e-10 Reference value :  1.70128e-10 Reference value :  1.70328e-10 Reference value :  1.70528e-10 Reference value :  1.70728e-10 Reference value :  1.71028e-10 Reference value :  1.71228e-10 Reference value :  1.71428e-10 Reference value :  1.71628e-10 Reference value :  1.71828e-10 Reference value :  1.71928e-10 Reference value :  1.72128e-10 Reference value :  1.72228e-10 Reference value :  1.72428e-10 Reference value :  1.72628e-10 Reference value :  1.72728e-10 Reference value :  1.72828e-10 Reference value :  1.72928e-10 Reference value :  1.73128e-10 Reference value :  1.73228e-10 Reference value :  1.73428e-10 Reference value :  1.73828e-10 Reference value :  1.74128e-10 Reference value :  1.74328e-10 Reference value :  1.74628e-10 Reference value :  1.74928e-10 Reference value :  1.99828e-10 Reference value :  2.00028e-10 Reference value :  2.01128e-10 Reference value :  2.01328e-10 Reference value :  2.13728e-10 Reference value :  2.13928e-10 Reference value :  2.14128e-10 Reference value :  2.14228e-10 Reference value :  2.14328e-10 Reference value :  2.14528e-10 Reference value :  2.14628e-10 Reference value :  2.14728e-10 Reference value :  2.14928e-10 Reference value :  2.15128e-10 Reference value :  2.15228e-10 Reference value :  2.15328e-10 Reference value :  2.15528e-10 Reference value :  2.15628e-10 Reference value :  2.15828e-10 Reference value :  2.15928e-10 Reference value :  2.16128e-10 Reference value :  2.16228e-10 Reference value :  2.16428e-10 Reference value :  2.16628e-10 Reference value :  2.16828e-10 Reference value :  2.17028e-10 Reference value :  2.17128e-10 Reference value :  2.17328e-10 Reference value :  2.17428e-10 Reference value :  2.17528e-10 Reference value :  2.17628e-10 Reference value :  2.17828e-10 Reference value :  2.17928e-10 Reference value :  2.18128e-10 Reference value :  2.18328e-10 Reference value :  2.18528e-10 Reference value :  2.18728e-10 Reference value :  2.18928e-10 Reference value :  2.19028e-10 Reference value :  2.19228e-10 Reference value :  2.19428e-10 Reference value :  2.19628e-10 Reference value :  2.19828e-10 Reference value :  2.20028e-10 Reference value :  2.20228e-10 Reference value :  2.20428e-10 Reference value :  2.20628e-10 Reference value :  2.20828e-10 Reference value :  2.20928e-10 Reference value :  2.21028e-10 Reference value :  2.21128e-10 Reference value :  2.21328e-10 Reference value :  2.21428e-10 Reference value :  2.21528e-10 Reference value :  2.21728e-10 Reference value :  2.21928e-10 Reference value :  2.22028e-10 Reference value :  2.22228e-10 Reference value :  2.22328e-10 Reference value :  2.22428e-10 Reference value :  2.22628e-10 Reference value :  2.22828e-10 Reference value :  2.23028e-10 Reference value :  2.23228e-10 Reference value :  2.23428e-10 Reference value :  2.26428e-10 Reference value :  2.33528e-10 Reference value :  2.33728e-10 Reference value :  2.33928e-10 Reference value :  2.34028e-10 Reference value :  2.34228e-10 Reference value :  2.34328e-10 Reference value :  2.80428e-10 Reference value :  2.93528e-10 Reference value :  2.93728e-10 Reference value :  2.96228e-10 Reference value :  2.96328e-10 Reference value :  3.28828e-10 Reference value :  3.29028e-10 Reference value :  3.29228e-10 Reference value :  3.29328e-10 Reference value :  3.29528e-10 Reference value :  3.29628e-10 Reference value :  3.29728e-10 Reference value :  3.29828e-10 Reference value :  3.29928e-10 Reference value :  3.30128e-10 Reference value :  3.30428e-10 Reference value :  3.33428e-10 Reference value :  3.33628e-10 Reference value :  3.44928e-10 Reference value :  3.45128e-10 Reference value :  3.45328e-10 Reference value :  3.45528e-10 Reference value :  3.48628e-10 Reference value :  3.48828e-10 Reference value :  3.49028e-10 Reference value :  3.49228e-10 Reference value :  4.11828e-10 Reference value :  5.62828e-10 Reference value :  5.66628e-10 Reference value :  5.66728e-10 Reference value :  5.66828e-10 Reference value :  5.69228e-10 Reference value :  5.69428e-10 Reference value :  5.69528e-10 Reference value :  5.69728e-10 Reference value :  5.69828e-10 Reference value :  5.70028e-10 Reference value :  5.70228e-10 Reference value :  5.70328e-10 Reference value :  5.70428e-10 Reference value :  5.70628e-10 Reference value :  5.73328e-10 Reference value :  5.73428e-10 Reference value :  5.73628e-10 Reference value :  5.77728e-10 Reference value :  5.77928e-10 Reference value :  5.86828e-10 Reference value :  5.89128e-10 Reference value :  5.89228e-10 Reference value :  5.89428e-10 Reference value :  5.93028e-10 Reference value :  6.33328e-10 Reference value :  6.33528e-10 Reference value :  6.33728e-10 Reference value :  6.37128e-10 Reference value :  6.37328e-10 Reference value :  6.37428e-10 Reference value :  6.37528e-10 Reference value :  6.37728e-10 Reference value :  6.37928e-10 Reference value :  6.38128e-10 Reference value :  6.38328e-10 Reference value :  6.38528e-10 Reference value :  6.38728e-10 Reference value :  6.39028e-10 Reference value :  6.39228e-10 Reference value :  6.57328e-10 Reference value :  6.57528e-10 Reference value :  6.57728e-10 Reference value :  6.57928e-10 Reference value :  6.58128e-10 Reference value :  6.58328e-10 Reference value :  6.58528e-10 Reference value :  6.58728e-10 Reference value :  6.58828e-10 Reference value :  6.59028e-10 Reference value :  6.59228e-10 Reference value :  6.59428e-10 Reference value :  6.59528e-10 Reference value :  6.59728e-10 Reference value :  6.59928e-10 Reference value :  6.60028e-10 Reference value :  6.64828e-10 Reference value :  6.65028e-10 Reference value :  6.65228e-10 Reference value :  6.65428e-10 Reference value :  6.65628e-10 Reference value :  6.65728e-10 Reference value :  6.65928e-10 Reference value :  6.66128e-10 Reference value :  6.72628e-10 Reference value :  6.72728e-10 Reference value :  6.77628e-10 Reference value :  6.77828e-10 Reference value :  6.78028e-10 Reference value :  6.79228e-10 Reference value :  6.79328e-10 Reference value :  6.79528e-10 Reference value :  6.79628e-10 Reference value :  6.79728e-10 Reference value :  6.79928e-10 Reference value :  6.80128e-10 Reference value :  6.80328e-10 Reference value :  6.80528e-10 Reference value :  6.80728e-10 Reference value :  6.80928e-10 Reference value :  6.81128e-10 Reference value :  7.32828e-10 Reference value :  7.32928e-10 Reference value :  7.33028e-10 Reference value :  7.43828e-10 Reference value :  7.44028e-10 Reference value :  7.44228e-10 Reference value :  7.44428e-10 Reference value :  7.44628e-10 Reference value :  7.44828e-10 Reference value :  7.45028e-10 Reference value :  7.45228e-10 Reference value :  7.45428e-10 Reference value :  7.45528e-10 Reference value :  7.45628e-10 Reference value :  7.52328e-10 Reference value :  7.52428e-10 Reference value :  7.90028e-10 Reference value :  7.90128e-10 Reference value :  7.91928e-10 Reference value :  7.92128e-10 Reference value :  7.92328e-10 Reference value :  7.92528e-10 Reference value :  7.93928e-10 Reference value :  8.39628e-10 Reference value :  8.81428e-10 Reference value :  8.81628e-10 Reference value :  8.81828e-10 Reference value :  8.82028e-10 Reference value :  8.82228e-10 Reference value :  8.84628e-10 Reference value :  8.98528e-10 Reference value :  8.98728e-10 Reference value :  8.98928e-10 Reference value :  8.99028e-10 Reference value :  8.99228e-10 Reference value :  8.99428e-10 Reference value :  9.06928e-10 Reference value :  9.07128e-10 Reference value :  9.07328e-10 Reference value :  9.07528e-10 Reference value :  9.08828e-10 Reference value :  9.11028e-10 Reference value :  9.11128e-10 Reference value :  9.24828e-10 Reference value :  9.24928e-10 Reference value :  9.25128e-10 Reference value :  9.25328e-10 Reference value :  9.25528e-10 Reference value :  9.25728e-10 Reference value :  9.30628e-10 Reference value :  9.60028e-10 Reference value :  9.60128e-10 Reference value :  9.60228e-10 Reference value :  9.87228e-10 Reference value :  9.87428e-10 Reference value :  9.87628e-10 Reference value :  9.87728e-10 Reference value :  9.87828e-10 Reference value :  9.88028e-10 Reference value :  9.88128e-10 Reference value :  9.88328e-10 Reference value :  9.88528e-10 Reference value :  9.88628e-10 Reference value :  9.88828e-10 Reference value :  9.89028e-10 Reference value :  9.89228e-10 Reference value :  9.89428e-10 Reference value :  9.89628e-10 Reference value :  9.89828e-10 Reference value :  9.89928e-10 Reference value :  9.90128e-10 Reference value :  9.90328e-10 Reference value :  9.90528e-10 Reference value :  9.90628e-10 Reference value :  9.90828e-10 Reference value :  9.90928e-10 Reference value :  9.91028e-10 Reference value :  9.91228e-10 Reference value :  9.91328e-10 Reference value :  9.91528e-10 Reference value :  9.93628e-10 Reference value :  9.93728e-10 Reference value :  9.93928e-10 Reference value :  9.94128e-10 Reference value :  9.94328e-10 Reference value :  9.94528e-10 Reference value :  9.94628e-10 Reference value :  9.94728e-10 Reference value :  9.94928e-10 Reference value :  9.95028e-10 Reference value :  9.97928e-10 Reference value :  9.98128e-10 Reference value :  1.06003e-09 Reference value :  1.06093e-09 Reference value :  1.06113e-09 Reference value :  1.06533e-09 Reference value :  1.06553e-09 Reference value :  1.18653e-09 Reference value :  1.20793e-09 Reference value :  1.20813e-09 Reference value :  1.20833e-09 Reference value :  1.20853e-09 Reference value :  1.20983e-09 Reference value :  1.21003e-09 Reference value :  1.21223e-09 Reference value :  1.21253e-09 Reference value :  1.22383e-09 Reference value :  1.22793e-09 Reference value :  1.34223e-09 Reference value :  1.34243e-09 Reference value :  1.35273e-09 Reference value :  1.36263e-09 Reference value :  1.36283e-09 Reference value :  1.36293e-09 Reference value :  1.36313e-09 Reference value :  1.36323e-09 Reference value :  1.36343e-09 Reference value :  1.36483e-09 Reference value :  1.36493e-09 Reference value :  1.36503e-09 Reference value :  1.36513e-09 Reference value :  1.36533e-09 Reference value :  1.38823e-09 Reference value :  1.38843e-09 Reference value :  1.38863e-09 Reference value :  1.40083e-09 Reference value :  1.40103e-09 Reference value :  1.44103e-09 Reference value :  1.44123e-09 Reference value :  1.48013e-09 Reference value :  1.48033e-09 Reference value :  1.48053e-09 Reference value :  1.48073e-09 Reference value :  1.57243e-09 Reference value :  1.61373e-09 Reference value :  1.61433e-09 Reference value :  1.61453e-09 Reference value :  1.61473e-09 Reference value :  1.61493e-09 Reference value :  1.61513e-09 Reference value :  1.61533e-09 Reference value :  1.61553e-09 Reference value :  1.61573e-09 Reference value :  1.61583e-09 Reference value :  1.61603e-09 Reference value :  1.61613e-09 Reference value :  1.61633e-09 Reference value :  1.61643e-09 Reference value :  1.61663e-09 Reference value :  1.62283e-09 Reference value :  1.62873e-09 Reference value :  1.62893e-09 Reference value :  1.62913e-09 Reference value :  1.62923e-09 Reference value :  1.62933e-09 Reference value :  1.62953e-09 Reference value :  1.63723e-09 Reference value :  1.68883e-09 Reference value :  1.68893e-09 Reference value :  1.68913e-09 Reference value :  1.68933e-09 Reference value :  1.68943e-09 Reference value :  1.68953e-09 Reference value :  1.68973e-09 Reference value :  1.68983e-09 Reference value :  1.68993e-09 Reference value :  1.69013e-09 Reference value :  1.69033e-09 Reference value :  1.69043e-09 Reference value :  1.69053e-09 Reference value :  1.69063e-09 Reference value :  1.69083e-09 Reference value :  1.69103e-09 Reference value :  1.69113e-09 Reference value :  1.69123e-09 Reference value :  1.69133e-09 Reference value :  1.69153e-09 Reference value :  1.69173e-09 Reference value :  1.69183e-09 Reference value :  1.69203e-09 Reference value :  1.69223e-09 Reference value :  1.69243e-09 Reference value :  1.69263e-09 Reference value :  1.70263e-09 Reference value :  1.70283e-09 Reference value :  1.70303e-09 Reference value :  1.70323e-09 Reference value :  1.70343e-09 Reference value :  1.70363e-09 Reference value :  1.70383e-09 Reference value :  1.70403e-09 Reference value :  1.70423e-09 Reference value :  1.70443e-09 Reference value :  1.70943e-09 Reference value :  1.70953e-09 Reference value :  1.70983e-09 Reference value :  1.70993e-09 Reference value :  1.71013e-09 Reference value :  1.71033e-09 Reference value :  1.71043e-09 Reference value :  1.71053e-09 Reference value :  1.71073e-09 Reference value :  1.71093e-09 Reference value :  1.71103e-09 Reference value :  1.71123e-09 Reference value :  1.71143e-09 Reference value :  1.71163e-09 Reference value :  1.71183e-09 Reference value :  1.71203e-09 Reference value :  1.71223e-09 Reference value :  1.71233e-09 Reference value :  1.71253e-09 Reference value :  1.71273e-09 Reference value :  1.71293e-09 Reference value :  1.74993e-09 Reference value :  1.75353e-09 Reference value :  1.79903e-09 Reference value :  1.80913e-09 Reference value :  1.80933e-09 Reference value :  1.84993e-09 Reference value :  1.85003e-09 Reference value :  1.85023e-09 Reference value :  1.85323e-09 Reference value :  1.85343e-09 Reference value :  1.85363e-09 Reference value :  1.89263e-09 Reference value :  1.89343e-09 Reference value :  1.92023e-09 Reference value :  1.92033e-09 Reference value :  1.92053e-09 Reference value :  1.92073e-09 Reference value :  1.92093e-09 Reference value :  1.92113e-09 Reference value :  1.92123e-09 Reference value :  1.95303e-09 Reference value :  1.96363e-09 Reference value :  1.98593e-09 Reference value :  1.98613e-09 Reference value :  1.98623e-09 Reference value :  1.98643e-09 Reference value :  1.98653e-09 Reference value :  1.98663e-09 Reference value :  1.98683e-09 Reference value :  1.98703e-09 Reference value :  1.98723e-09 Reference value :  1.98733e-09 Reference value :  1.98743e-09 Reference value :  1.98763e-09 Reference value :  1.98773e-09 Reference value :  1.98793e-09 Reference value :  1.98803e-09 Reference value :  1.98823e-09 Reference value :  1.98833e-09 Reference value :  1.98843e-09 Reference value :  1.98853e-09 Reference value :  1.98863e-09 Reference value :  1.98873e-09 Reference value :  1.98893e-09 Reference value :  1.98913e-09 Reference value :  2.01663e-09 Reference value :  2.01683e-09 Reference value :  2.01703e-09 Reference value :  2.01723e-09 Reference value :  2.01973e-09 Reference value :  2.02003e-09 Reference value :  2.02023e-09 Reference value :  2.07933e-09 Reference value :  2.08233e-09 Reference value :  2.08253e-09 Reference value :  2.08273e-09 Reference value :  2.08283e-09 Reference value :  2.08293e-09 Reference value :  2.08313e-09 Reference value :  2.08543e-09 Reference value :  2.08563e-09 Reference value :  2.08573e-09 Reference value :  2.08593e-09 Reference value :  2.08613e-09 Reference value :  2.08633e-09 Reference value :  2.08653e-09 Reference value :  2.08673e-09 Reference value :  2.08693e-09 Reference value :  2.08713e-09 Reference value :  2.08733e-09 Reference value :  2.08753e-09 Reference value :  2.08773e-09 Reference value :  2.09053e-09 Reference value :  2.09073e-09 Reference value :  2.09093e-09 Reference value :  2.12403e-09 Reference value :  2.12423e-09 Reference value :  2.12443e-09 Reference value :  2.12453e-09 Reference value :  2.12473e-09 Reference value :  2.12493e-09 Reference value :  2.12503e-09 Reference value :  2.12513e-09 Reference value :  2.12643e-09 Reference value :  2.12973e-09 Reference value :  2.12983e-09 Reference value :  2.12993e-09 Reference value :  2.13003e-09 Reference value :  2.13013e-09 Reference value :  2.13023e-09 Reference value :  2.13043e-09 Reference value :  2.13053e-09 Reference value :  2.13063e-09 Reference value :  2.13073e-09 Reference value :  2.13083e-09 Reference value :  2.13093e-09 Reference value :  2.13113e-09 Reference value :  2.13133e-09 Reference value :  2.17533e-09 Reference value :  2.17543e-09 Reference value :  2.17553e-09 Reference value :  2.17573e-09 Reference value :  2.17593e-09 Reference value :  2.17603e-09 Reference value :  2.17623e-09 Reference value :  2.18853e-09 Reference value :  2.18873e-09 Reference value :  2.18893e-09 Reference value :  2.18913e-09 Reference value :  2.19833e-09 Reference value :  2.26573e-09 Reference value :  2.33583e-09 Reference value :  2.33603e-09 Reference value :  2.34343e-09 Reference value :  2.34363e-09 Reference value :  2.34383e-09 Reference value :  2.35423e-09 Reference value :  2.35673e-09 Reference value :  2.35683e-09 Reference value :  2.35703e-09 Reference value :  2.35723e-09 Reference value :  2.35743e-09 Reference value :  2.36203e-09 Reference value :  2.36223e-09 Reference value :  2.36243e-09 Reference value :  2.43383e-09 Reference value :  2.47653e-09 Reference value :  2.47673e-09 Reference value :  2.47693e-09 Reference value :  2.47713e-09 Reference value :  2.47733e-09 Reference value :  2.47753e-09 Reference value :  2.47773e-09 Reference value :  2.60073e-09 Reference value :  2.60133e-09 Reference value :  2.60153e-09 Reference value :  2.60163e-09 Reference value :  2.60183e-09 Reference value :  2.60193e-09 Reference value :  2.60213e-09 Reference value :  2.60223e-09 Reference value :  2.60243e-09 Reference value :  2.60263e-09 Reference value :  2.60283e-09 Reference value :  2.60303e-09 Reference value :  2.60323e-09 Reference value :  2.60333e-09 Reference value :  2.60353e-09 Reference value :  2.61103e-09 Reference value :  2.61123e-09 Reference value :  2.61143e-09 Reference value :  2.61163e-09 Reference value :  2.61183e-09 Reference value :  2.68043e-09 Reference value :  2.69053e-09 Reference value :  2.69063e-09 Reference value :  2.70273e-09 Reference value :  2.70593e-09 Reference value :  2.72483e-09 Reference value :  2.72593e-09 Reference value :  2.72603e-09 Reference value :  2.75973e-09 Reference value :  2.75983e-09 Reference value :  2.77283e-09 Reference value :  2.77413e-09 Reference value :  2.77433e-09 Reference value :  2.77443e-09 Reference value :  2.77453e-09 Reference value :  2.77473e-09 Reference value :  2.77493e-09 Reference value :  2.77513e-09 Reference value :  2.77533e-09 Reference value :  2.77543e-09 Reference value :  2.77553e-09 Reference value :  2.77573e-09 Reference value :  2.77593e-09 Reference value :  2.77613e-09 Reference value :  2.77633e-09 Reference value :  2.77643e-09 Reference value :  2.77663e-09 Reference value :  2.77683e-09 Reference value :  2.77703e-09 Reference value :  2.77723e-09 Reference value :  2.77743e-09 Reference value :  2.77753e-09 Reference value :  2.79593e-09 Reference value :  2.79603e-09 Reference value :  2.79613e-09 Reference value :  2.79633e-09 Reference value :  2.79653e-09 Reference value :  2.79673e-09 Reference value :  2.79693e-09 Reference value :  2.79713e-09 Reference value :  2.79733e-09 Reference value :  2.79753e-09 Reference value :  2.79763e-09 Reference value :  2.79773e-09 Reference value :  2.79793e-09 Reference value :  2.79813e-09 Reference value :  2.79833e-09 Reference value :  2.79853e-09 Reference value :  2.79873e-09 Reference value :  2.79893e-09 Reference value :  2.79913e-09 Reference value :  2.79933e-09 Reference value :  2.79953e-09 Reference value :  2.79973e-09 Reference value :  2.79983e-09 Reference value :  2.80003e-09 Reference value :  2.80023e-09 Reference value :  2.80043e-09 Reference value :  2.80063e-09 Reference value :  2.80073e-09 Reference value :  2.80093e-09 Reference value :  2.80103e-09 Reference value :  2.80553e-09 Reference value :  2.80723e-09 Reference value :  2.82623e-09 Reference value :  2.82633e-09 Reference value :  2.82653e-09 Reference value :  2.82913e-09 Reference value :  2.86913e-09 Reference value :  2.88403e-09 Reference value :  2.88723e-09 Reference value :  2.88743e-09 Reference value :  2.88753e-09 Reference value :  2.88773e-09 Reference value :  2.88793e-09 Reference value :  2.91913e-09 Reference value :  2.91933e-09 Reference value :  2.91953e-09 Reference value :  2.91963e-09 Reference value :  2.91973e-09 Reference value :  2.91993e-09 Reference value :  2.92013e-09 Reference value :  2.92033e-09 Reference value :  2.92043e-09 Reference value :  2.92063e-09 Reference value :  2.92083e-09 Reference value :  2.92533e-09 Reference value :  2.92553e-09 Reference value :  2.92563e-09 Reference value :  2.92573e-09 Reference value :  2.92583e-09 Reference value :  2.92593e-09 Reference value :  2.92613e-09 Reference value :  2.92623e-09 Reference value :  2.92643e-09 Reference value :  2.92663e-09 Reference value :  2.92673e-09 Reference value :  2.92693e-09 Reference value :  2.92713e-09 Reference value :  2.92723e-09 Reference value :  2.92743e-09 Reference value :  2.92763e-09 Reference value :  2.92783e-09 Reference value :  2.92793e-09 Reference value :  2.92813e-09 Reference value :  2.92833e-09 Reference value :  2.92843e-09 Reference value :  2.92853e-09 Reference value :  2.92873e-09 Reference value :  2.92883e-09 Reference value :  2.92903e-09 Reference value :  2.92923e-09 Reference value :  2.92943e-09 Reference value :  2.96013e-09 Reference value :  2.96023e-09 Reference value :  2.96033e-09 Reference value :  2.96043e-09 Reference value :  2.96063e-09 Reference value :  2.96573e-09 Reference value :  2.96593e-09 Reference value :  2.96613e-09 Reference value :  2.96633e-09 Reference value :  2.96653e-09 Reference value :  2.96663e-09 Reference value :  2.96673e-09 Reference value :  2.96683e-09 Reference value :  2.96693e-09 Reference value :  2.96713e-09 Reference value :  2.96733e-09 Reference value :  2.96753e-09 Reference value :  2.96763e-09 Reference value :  2.96773e-09 Reference value :  2.96783e-09 Reference value :  2.96803e-09 Reference value :  2.96813e-09 Reference value :  2.96863e-09 Reference value :  2.96873e-09 Reference value :  2.96883e-09 Reference value :  2.96903e-09 Reference value :  2.96913e-09 Reference value :  2.96933e-09 Reference value :  2.96943e-09 Reference value :  2.96953e-09 Reference value :  2.96973e-09 Reference value :  2.97123e-09 Reference value :  2.97143e-09 Reference value :  2.98403e-09 Reference value :  2.98413e-09 Reference value :  2.98433e-09 Reference value :  2.98443e-09 Reference value :  2.98463e-09 Reference value :  2.98483e-09 Reference value :  2.98493e-09 Reference value :  2.98513e-09 Reference value :  2.98533e-09 Reference value :  2.98853e-09 Reference value :  2.98873e-09 Reference value :  2.99073e-09 Reference value :  2.99083e-09 Reference value :  2.99103e-09 Reference value :  2.99123e-09 Reference value :  2.99143e-09 Reference value :  2.99163e-09 Reference value :  2.99173e-09 Reference value :  2.99193e-09 Reference value :  2.99203e-09 Reference value :  2.99223e-09 Reference value :  2.99243e-09 Reference value :  2.99263e-09 Reference value :  2.99283e-09 Reference value :  2.99303e-09 Reference value :  2.99323e-09 Reference value :  2.99343e-09 Reference value :  2.99363e-09 Reference value :  2.99383e-09 Reference value :  3.03053e-09 Reference value :  3.03073e-09 Reference value :  3.03083e-09 Reference value :  3.03103e-09 Reference value :  3.03113e-09 Reference value :  3.03123e-09 Reference value :  3.03143e-09 Reference value :  3.03153e-09 Reference value :  3.03173e-09 Reference value :  3.03193e-09 Reference value :  3.03203e-09 Reference value :  3.03223e-09 Reference value :  3.03243e-09 Reference value :  3.03263e-09 Reference value :  3.03283e-09 Reference value :  3.03293e-09 Reference value :  3.03303e-09 Reference value :  3.03323e-09 Reference value :  3.06303e-09 Reference value :  3.06323e-09 Reference value :  3.06343e-09 Reference value :  3.06353e-09 Reference value :  3.06373e-09 Reference value :  3.06393e-09 Reference value :  3.06413e-09 Reference value :  3.06423e-09 Reference value :  3.06433e-09 Reference value :  3.06463e-09 Reference value :  3.06473e-09 Reference value :  3.06493e-09 Reference value :  3.06513e-09 Reference value :  3.06533e-09 Reference value :  3.06553e-09 Reference value :  3.06563e-09 Reference value :  3.06583e-09 Reference value :  3.06603e-09 Reference value :  3.06623e-09 Reference value :  3.07643e-09 Reference value :  3.07663e-09 Reference value :  3.07673e-09 Reference value :  3.07693e-09 Reference value :  3.07703e-09 Reference value :  3.07723e-09 Reference value :  3.07743e-09 Reference value :  3.07763e-09 Reference value :  3.07783e-09 Reference value :  3.07803e-09 Reference value :  3.08003e-09 Reference value :  3.08023e-09 Reference value :  3.08033e-09 Reference value :  3.11793e-09 Reference value :  3.11813e-09 Reference value :  3.11833e-09 Reference value :  3.16773e-09 Reference value :  3.16793e-09 Reference value :  3.26213e-09 Reference value :  3.26233e-09 Reference value :  3.26253e-09 Reference value :  3.26263e-09 Reference value :  3.26273e-09 Reference value :  3.26293e-09 Reference value :  3.26313e-09 Reference value :  3.26573e-09 Reference value :  3.26593e-09 Reference value :  3.26603e-09 Reference value :  3.26613e-09 Reference value :  3.26633e-09 Reference value :  3.26653e-09 Reference value :  3.26673e-09 Reference value :  3.26693e-09 Reference value :  3.27003e-09 Reference value :  3.27013e-09 Reference value :  3.27033e-09 Reference value :  3.30323e-09 Reference value :  3.33233e-09 Reference value :  3.33423e-09 Reference value :  3.33443e-09 Reference value :  3.33453e-09 Reference value :  3.36713e-09 Reference value :  3.36723e-09 Reference value :  3.36733e-09 Reference value :  3.36743e-09 Reference value :  3.36763e-09 Reference value :  3.36773e-09 Reference value :  3.36793e-09 Reference value :  3.36813e-09 Reference value :  3.36833e-09 Reference value :  3.36853e-09 Reference value :  3.36873e-09 Reference value :  3.36883e-09 Reference value :  3.36903e-09 Reference value :  3.36923e-09 Reference value :  3.36943e-09 Reference value :  3.36963e-09 Reference value :  3.38763e-09 Reference value :  3.38773e-09 Reference value :  3.38793e-09 Reference value :  3.39093e-09 Reference value :  3.39103e-09 Reference value :  3.43903e-09 Reference value :  3.47413e-09 Reference value :  3.47913e-09 Reference value :  3.47933e-09 Reference value :  3.48363e-09 Reference value :  3.48373e-09 Reference value :  3.48393e-09 Reference value :  3.48403e-09 Reference value :  3.49453e-09 Reference value :  3.49463e-09 Reference value :  3.49483e-09 Reference value :  3.49493e-09 Reference value :  3.49503e-09 Reference value :  3.49513e-09 Reference value :  3.49533e-09 Reference value :  3.49553e-09 Reference value :  3.49563e-09 Reference value :  3.49573e-09 Reference value :  3.49583e-09 Reference value :  3.49593e-09 Reference value :  3.49603e-09 Reference value :  3.49613e-09 Reference value :  3.49623e-09 Reference value :  3.49643e-09 Reference value :  3.49663e-09 Reference value :  3.49683e-09 Reference value :  3.49693e-09 Reference value :  3.49703e-09 Reference value :  3.49713e-09 Reference value :  3.49743e-09 Reference value :  3.49753e-09 Reference value :  3.49973e-09 Reference value :  3.49983e-09 Reference value :  3.50003e-09 Reference value :  3.50023e-09 Reference value :  3.50033e-09 Reference value :  3.50053e-09 Reference value :  3.52563e-09 Reference value :  3.52583e-09 Reference value :  3.52603e-09 Reference value :  3.52613e-09 Reference value :  3.52623e-09 Reference value :  3.52643e-09 Reference value :  3.52663e-09 Reference value :  3.52673e-09 Reference value :  3.52683e-09 Reference value :  3.52693e-09 Reference value :  3.52703e-09 Reference value :  3.52723e-09 Reference value :  3.52733e-09 Reference value :  3.52863e-09 Reference value :  3.52883e-09 Reference value :  3.52903e-09 Reference value :  3.52923e-09 Reference value :  3.53063e-09 Reference value :  3.53083e-09 Reference value :  3.53093e-09 Reference value :  3.53103e-09 Reference value :  3.53113e-09 Reference value :  3.53123e-09 Reference value :  3.53143e-09 Reference value :  3.54343e-09 Reference value :  3.54353e-09 Reference value :  3.54373e-09 Reference value :  3.54393e-09 Reference value :  3.54403e-09 Reference value :  3.54423e-09 Reference value :  3.54443e-09 Reference value :  3.54463e-09 Reference value :  3.54483e-09 Reference value :  3.54493e-09 Reference value :  3.54513e-09 Reference value :  3.54743e-09 Reference value :  3.61013e-09 Reference value :  3.61033e-09 Reference value :  3.61053e-09 Reference value :  3.61193e-09 Reference value :  3.61203e-09 Reference value :  3.61213e-09 Reference value :  3.61233e-09 Reference value :  3.61253e-09 Reference value :  3.61273e-09 Reference value :  3.65763e-09 Reference value :  3.71653e-09 Reference value :  3.76613e-09 Reference value :  3.80933e-09 Reference value :  3.81053e-09 Reference value :  3.85773e-09 Reference value :  4.00793e-09 Reference value :  4.08843e-09 Reference value :  4.08863e-09 Reference value :  4.08883e-09 Reference value :  4.08903e-09 Reference value :  4.08923e-09 Reference value :  4.08943e-09 Reference value :  4.08963e-09 Reference value :  4.08973e-09 Reference value :  4.13173e-09 Reference value :  4.20543e-09 Reference value :  4.20553e-09 Reference value :  4.26143e-09 Reference value :  4.26163e-09 Reference value :  4.28223e-09 Reference value :  4.28243e-09 Reference value :  4.28263e-09 Reference value :  4.28273e-09 Reference value :  4.28293e-09 Reference value :  4.31403e-09 Reference value :  4.31423e-09 Reference value :  4.31443e-09 Reference value :  4.31463e-09 Reference value :  4.31483e-09 Reference value :  4.31503e-09 Reference value :  4.31523e-09 Reference value :  4.31633e-09 Reference value :  4.31653e-09 Reference value :  4.31673e-09 Reference value :  4.31693e-09 Reference value :  4.31713e-09 Reference value :  4.31733e-09 Reference value :  4.31753e-09 Reference value :  4.31773e-09 Reference value :  4.33763e-09 Reference value :  4.35723e-09 Reference value :  4.36503e-09 Reference value :  4.37143e-09 Reference value :  4.38583e-09 Reference value :  4.38593e-09 Reference value :  4.38613e-09 Reference value :  4.38683e-09 Reference value :  4.38703e-09 Reference value :  4.43423e-09 Reference value :  4.43433e-09 Reference value :  4.43443e-09 Reference value :  4.43463e-09 Reference value :  4.43483e-09 Reference value :  4.43503e-09 Reference value :  4.43523e-09 Reference value :  4.45613e-09 Reference value :  4.53603e-09 Reference value :  4.66843e-09 Reference value :  4.81413e-09 Reference value :  4.97633e-09
No. of Data Rows : 50008
Note: Simulation executed from .control section 


Note: No compatibility mode selected!


Circuit: ** sch_path: /home/bmott/tt_relative_path_test/xsch/tb/ringosc/ringosc_tb_mc.sch

Doing analysis at TEMP = 27.000000 and TNOM = 27.000000

Using SPARSE 1.3 as Direct Linear Solver

Initial Transient Solution
--------------------------

Node                                   Voltage
----                                   -------
x1.net1                               0.827103
out                                   0.837882
net1                                       1.8
x1.net2                               0.832723
v1#branch                         -5.11721e-05

[...]

Using SPARSE 1.3 as Direct Linear Solver

Initial Transient Solution
--------------------------

Node                                   Voltage
----                                   -------
x1.net1                                0.82911
out                                   0.849124
net1                                       1.8
x1.net2                               0.839217
v1#branch                          -5.1698e-05

 Reference value :  0.00000e+00 Reference value :  9.52800e-12 Reference value :  9.72800e-12 Reference value :  1.80280e-11 Reference value :  3.34280e-11 Reference value :  4.36280e-11 Reference value :  4.37280e-11 Reference value :  4.39280e-11 Reference value :  4.40280e-11 Reference value :  4.42280e-11 Reference value :  4.43280e-11 Reference value :  4.44280e-11 Reference value :  5.29280e-11 Reference value :  5.30280e-11 Reference value :  6.70280e-11 Reference value :  8.39280e-11 Reference value :  8.46280e-11 Reference value :  8.99280e-11 Reference value :  9.00280e-11 Reference value :  9.02280e-11 Reference value :  9.87280e-11 Reference value :  9.89280e-11 Reference value :  9.90280e-11 Reference value :  9.92280e-11 Reference value :  9.94280e-11 Reference value :  1.33428e-10 Reference value :  1.33628e-10 Reference value :  1.67728e-10 Reference value :  1.67828e-10 Reference value :  1.67928e-10 Reference value :  1.68128e-10 Reference value :  1.68328e-10 Reference value :  1.68528e-10 Reference value :  1.68728e-10 Reference value :  1.68928e-10 Reference value :  1.69028e-10 Reference value :  1.69228e-10 Reference value :  1.90328e-10 Reference value :  2.92128e-10 Reference value :  4.95628e-10 Reference value :  5.98228e-10 Reference value :  5.98428e-10 Reference value :  5.98628e-10 Reference value :  5.99528e-10 Reference value :  5.99728e-10 Reference value :  6.02928e-10 Reference value :  6.16528e-10 Reference value :  6.16628e-10 Reference value :  6.19728e-10 Reference value :  6.26528e-10 Reference value :  6.67628e-10 Reference value :  7.31328e-10 Reference value :  7.89828e-10 Reference value :  9.91528e-10 Reference value :  9.99728e-10 Reference value :  1.09183e-09 Reference value :  1.14763e-09 Reference value :  1.24663e-09 Reference value :  1.32503e-09 Reference value :  1.33183e-09 Reference value :  1.35203e-09 Reference value :  1.35213e-09 Reference value :  1.35233e-09 Reference value :  1.38753e-09 Reference value :  1.42913e-09 Reference value :  1.58213e-09 Reference value :  1.66103e-09 Reference value :  1.66113e-09 Reference value :  1.66133e-09 Reference value :  1.66153e-09 Reference value :  1.66173e-09 Reference value :  1.71233e-09 Reference value :  1.74643e-09 Reference value :  1.77763e-09 Reference value :  1.81373e-09 Reference value :  1.87913e-09 Reference value :  1.91273e-09 Reference value :  1.94093e-09 Reference value :  1.94133e-09 Reference value :  1.97343e-09 Reference value :  1.98813e-09 Reference value :  1.98823e-09 Reference value :  1.98833e-09 Reference value :  1.98853e-09 Reference value :  1.98873e-09 Reference value :  1.99633e-09 Reference value :  1.99653e-09 Reference value :  1.99673e-09 Reference value :  1.99773e-09 Reference value :  2.02803e-09 Reference value :  2.07513e-09 Reference value :  2.07533e-09 Reference value :  2.07553e-09 Reference value :  2.07563e-09 Reference value :  2.08143e-09 Reference value :  2.08163e-09 Reference value :  2.08183e-09 Reference value :  2.08203e-09 Reference value :  2.08223e-09 Reference value :  2.08233e-09 Reference value :  2.08253e-09 Reference value :  2.08273e-09 Reference value :  2.08293e-09 Reference value :  2.08303e-09 Reference value :  2.08323e-09 Reference value :  2.08343e-09 Reference value :  2.08643e-09 Reference value :  2.09023e-09 Reference value :  2.09033e-09 Reference value :  2.09043e-09 Reference value :  2.09063e-09 Reference value :  2.09083e-09 Reference value :  2.09103e-09 Reference value :  2.09113e-09 Reference value :  2.09133e-09 Reference value :  2.09153e-09 Reference value :  2.09173e-09 Reference value :  2.09183e-09 Reference value :  2.12683e-09 Reference value :  2.15883e-09 Reference value :  2.18613e-09 Reference value :  2.18633e-09 Reference value :  2.18643e-09 Reference value :  2.18663e-09 Reference value :  2.18683e-09 Reference value :  2.18703e-09 Reference value :  2.25433e-09 Reference value :  2.32513e-09 Reference value :  2.32533e-09 Reference value :  2.32553e-09 Reference value :  2.32573e-09 Reference value :  2.32593e-09 Reference value :  2.32613e-09 Reference value :  2.32633e-09 Reference value :  2.32653e-09 Reference value :  2.33553e-09 Reference value :  2.37923e-09 Reference value :  2.39603e-09 Reference value :  2.43033e-09 Reference value :  2.47643e-09 Reference value :  2.47653e-09 Reference value :  2.49553e-09 Reference value :  2.49733e-09 Reference value :  2.49753e-09 Reference value :  2.49773e-09 Reference value :  2.49783e-09 Reference value :  2.49803e-09 Reference value :  2.49823e-09 Reference value :  2.49843e-09 Reference value :  2.49863e-09 Reference value :  2.53283e-09 Reference value :  2.54133e-09 Reference value :  2.54153e-09 Reference value :  2.54173e-09 Reference value :  2.66073e-09 Reference value :  2.79983e-09 Reference value :  2.97233e-09 Reference value :  3.14513e-09 Reference value :  3.32493e-09 Reference value :  3.45513e-09 Reference value :  3.58873e-09 Reference value :  3.74063e-09 Reference value :  3.90823e-09 Reference value :  4.09683e-09 Reference value :  4.25093e-09 Reference value :  4.39243e-09 Reference value :  4.54953e-09 Reference value :  4.67893e-09 Reference value :  4.80673e-09 Reference value :  4.94153e-09
No. of Data Rows : 50008
Note: Simulation executed from .control section 


Note: No compatibility mode selected!


Circuit: ** sch_path: /home/bmott/tt_relative_path_test/xsch/tb/ringosc/ringosc_tb_mc.sch

Doing analysis at TEMP = 27.000000 and TNOM = 27.000000

Using SPARSE 1.3 as Direct Linear Solver

Initial Transient Solution
--------------------------

Node                                   Voltage
----                                   -------
x1.net1                               0.842682
out                                   0.823611
net1                                       1.8
x1.net2                               0.837271
v1#branch                          -5.1169e-05

 Reference value :  0.00000e+00 Reference value :  1.76828e-10 Reference value :  3.21628e-10 Reference value :  5.04128e-10 Reference value :  6.73828e-10 Reference value :  8.67128e-10 Reference value :  1.02383e-09 Reference value :  1.17103e-09 Reference value :  1.34243e-09 Reference value :  1.53353e-09 Reference value :  1.72243e-09 Reference value :  1.90683e-09 Reference value :  2.05933e-09 Reference value :  2.20543e-09 Reference value :  2.33953e-09 Reference value :  2.46913e-09 Reference value :  2.61943e-09 Reference value :  2.74673e-09 Reference value :  2.88763e-09 Reference value :  3.01963e-09 Reference value :  3.14403e-09 Reference value :  3.32083e-09 Reference value :  3.45733e-09 Reference value :  3.62773e-09 Reference value :  3.76133e-09 Reference value :  3.88543e-09 Reference value :  4.04453e-09 Reference value :  4.17143e-09 Reference value :  4.32943e-09 Reference value :  4.49083e-09 Reference value :  4.67223e-09 Reference value :  4.85183e-09
No. of Data Rows : 50008
Note: Simulation executed from .control section 


Note: No compatibility mode selected!


Circuit: ** sch_path: /home/bmott/tt_relative_path_test/xsch/tb/ringosc/ringosc_tb_mc.sch

Doing analysis at TEMP = 27.000000 and TNOM = 27.000000

Using SPARSE 1.3 as Direct Linear Solver

Initial Transient Solution
--------------------------

Node                                   Voltage
----                                   -------
x1.net1                               0.863911
out                                   0.840545
net1                                       1.8
x1.net2                               0.822472
v1#branch                         -4.93717e-05

 Reference value :  0.00000e+00 Reference value :  1.06428e-10 Reference value :  2.56128e-10 Reference value :  4.28028e-10 Reference value :  5.78328e-10 Reference value :  7.32728e-10 Reference value :  8.85328e-10 Reference value :  9.76428e-10 Reference value :  1.00943e-09 Reference value :  1.07423e-09 Reference value :  1.13423e-09 Reference value :  1.17193e-09 Reference value :  1.21903e-09 Reference value :  1.22083e-09 Reference value :  1.24943e-09 Reference value :  1.27693e-09 Reference value :  1.29623e-09 Reference value :  1.34683e-09 Reference value :  1.40733e-09 Reference value :  1.46953e-09 Reference value :  1.62633e-09 Reference value :  1.74073e-09 Reference value :  1.74513e-09 Reference value :  1.74533e-09 Reference value :  1.74543e-09 Reference value :  1.74563e-09 Reference value :  1.77863e-09 Reference value :  1.81543e-09 Reference value :  1.81563e-09 Reference value :  1.81583e-09 Reference value :  1.81603e-09 Reference value :  1.86533e-09 Reference value :  1.90063e-09 Reference value :  1.91313e-09 Reference value :  1.96683e-09 Reference value :  1.96703e-09 Reference value :  1.96723e-09 Reference value :  1.97203e-09 Reference value :  2.04593e-09 Reference value :  2.04613e-09 Reference value :  2.04633e-09 Reference value :  2.04653e-09 Reference value :  2.04673e-09 Reference value :  2.04683e-09 Reference value :  2.04703e-09 Reference value :  2.04723e-09 Reference value :  2.04743e-09 Reference value :  2.04763e-09 Reference value :  2.04783e-09 Reference value :  2.04793e-09 Reference value :  2.04803e-09 Reference value :  2.04823e-09 Reference value :  2.04843e-09 Reference value :  2.04863e-09 Reference value :  2.04883e-09 Reference value :  2.05383e-09 Reference value :  2.16573e-09 Reference value :  2.30503e-09 Reference value :  2.44873e-09 Reference value :  2.58683e-09 Reference value :  2.58703e-09 Reference value :  2.62363e-09 Reference value :  2.62383e-09 Reference value :  2.62913e-09 Reference value :  2.62933e-09 Reference value :  2.62953e-09 Reference value :  2.62973e-09 Reference value :  2.62993e-09 Reference value :  2.63013e-09 Reference value :  2.63033e-09 Reference value :  2.63053e-09 Reference value :  2.63063e-09 Reference value :  2.63083e-09 Reference value :  2.63093e-09 Reference value :  2.63113e-09 Reference value :  2.63133e-09 Reference value :  2.63793e-09 Reference value :  2.66533e-09 Reference value :  2.68913e-09 Reference value :  2.71293e-09 Reference value :  2.71313e-09 Reference value :  2.71333e-09 Reference value :  2.71353e-09 Reference value :  2.71373e-09 Reference value :  2.71393e-09 Reference value :  2.74423e-09 Reference value :  2.74443e-09 Reference value :  2.74463e-09 Reference value :  2.74493e-09 Reference value :  2.75813e-09 Reference value :  2.75833e-09 Reference value :  2.75853e-09 Reference value :  2.75873e-09 Reference value :  2.79623e-09 Reference value :  2.82373e-09 Reference value :  2.85513e-09 Reference value :  2.87423e-09 Reference value :  2.87443e-09 Reference value :  2.87463e-09 Reference value :  2.87483e-09 Reference value :  2.87503e-09 Reference value :  2.91323e-09 Reference value :  2.91343e-09 Reference value :  2.91363e-09 Reference value :  2.96513e-09 Reference value :  2.96523e-09 Reference value :  3.01403e-09 Reference value :  3.14143e-09 Reference value :  3.30483e-09 Reference value :  3.36683e-09 Reference value :  3.36693e-09 Reference value :  3.36713e-09 Reference value :  3.36733e-09 Reference value :  3.43043e-09 Reference value :  3.46793e-09 Reference value :  3.47793e-09 Reference value :  3.47813e-09 Reference value :  3.47973e-09 Reference value :  3.49143e-09 Reference value :  3.54453e-09 Reference value :  3.54473e-09 Reference value :  3.54493e-09 Reference value :  3.55113e-09 Reference value :  3.55133e-09 Reference value :  3.55153e-09 Reference value :  3.55383e-09 Reference value :  3.55403e-09 Reference value :  3.68683e-09 Reference value :  3.78823e-09 Reference value :  3.92743e-09 Reference value :  4.06963e-09 Reference value :  4.19963e-09 Reference value :  4.34323e-09 Reference value :  4.47843e-09 Reference value :  4.48083e-09 Reference value :  4.50963e-09 Reference value :  4.58013e-09 Reference value :  4.58563e-09 Reference value :  4.62913e-09 Reference value :  4.69173e-09 Reference value :  4.72613e-09 Reference value :  4.86673e-09 Reference value :  4.92943e-09 Reference value :  4.98953e-09 Reference value :  4.98963e-09
No. of Data Rows : 50008
Note: Simulation executed from .control section 


Note: No compatibility mode selected!


Circuit: ** sch_path: /home/bmott/tt_relative_path_test/xsch/tb/ringosc/ringosc_tb_mc.sch

Doing analysis at TEMP = 27.000000 and TNOM = 27.000000

Using SPARSE 1.3 as Direct Linear Solver

Initial Transient Solution
--------------------------

Node                                   Voltage
----                                   -------
x1.net1                               0.833268
out                                   0.833816
net1                                       1.8
x1.net2                               0.818695
v1#branch                         -4.90424e-05

 Reference value :  0.00000e+00 Reference value :  6.62800e-12 Reference value :  9.92800e-12 Reference value :  1.01280e-11 Reference value :  1.03280e-11 Reference value :  4.81280e-11 Reference value :  1.11628e-10 Reference value :  1.11828e-10 Reference value :  1.11928e-10 Reference value :  1.12128e-10 Reference value :  1.51128e-10 Reference value :  1.51228e-10 Reference value :  1.51428e-10 Reference value :  1.91428e-10 Reference value :  2.74728e-10 Reference value :  2.81328e-10 Reference value :  2.92928e-10 Reference value :  2.93128e-10 Reference value :  2.93328e-10 Reference value :  3.04028e-10 Reference value :  3.04228e-10 Reference value :  3.04728e-10 Reference value :  3.19128e-10 Reference value :  3.19428e-10 Reference value :  3.60028e-10 Reference value :  4.49828e-10 Reference value :  6.15328e-10 Reference value :  8.04328e-10 Reference value :  1.01353e-09 Reference value :  1.21303e-09 Reference value :  1.35763e-09 Reference value :  1.40253e-09 Reference value :  1.40303e-09 Reference value :  1.43733e-09 Reference value :  1.43753e-09 Reference value :  1.47043e-09 Reference value :  1.47293e-09 Reference value :  1.51193e-09 Reference value :  1.54903e-09 Reference value :  1.57923e-09 Reference value :  1.61653e-09 Reference value :  1.61673e-09 Reference value :  1.61693e-09 Reference value :  1.61713e-09 Reference value :  1.69573e-09 Reference value :  1.78003e-09 Reference value :  1.80853e-09 Reference value :  1.83013e-09 Reference value :  1.83903e-09 Reference value :  1.84963e-09 Reference value :  1.85653e-09 Reference value :  1.86053e-09 Reference value :  1.87973e-09 Reference value :  1.92983e-09 Reference value :  1.92993e-09 Reference value :  1.93013e-09 Reference value :  1.96403e-09 Reference value :  1.96413e-09 Reference value :  1.96433e-09 Reference value :  1.96453e-09 Reference value :  2.02493e-09 Reference value :  2.03313e-09 Reference value :  2.09593e-09 Reference value :  2.13693e-09 Reference value :  2.13713e-09 Reference value :  2.13733e-09 Reference value :  2.19423e-09 Reference value :  2.39543e-09 Reference value :  2.60903e-09 Reference value :  2.76613e-09 Reference value :  2.86133e-09 Reference value :  2.89473e-09 Reference value :  2.96643e-09 Reference value :  3.01423e-09 Reference value :  3.01813e-09 Reference value :  3.01833e-09 Reference value :  3.01843e-09 Reference value :  3.01853e-09 Reference value :  3.01863e-09 Reference value :  3.01873e-09 Reference value :  3.01883e-09 Reference value :  3.02473e-09 Reference value :  3.04743e-09 Reference value :  3.04763e-09 Reference value :  3.04773e-09 Reference value :  3.06243e-09 Reference value :  3.08223e-09 Reference value :  3.08243e-09 Reference value :  3.10513e-09 Reference value :  3.10533e-09 Reference value :  3.10543e-09 Reference value :  3.10563e-09 Reference value :  3.10583e-09 Reference value :  3.10603e-09 Reference value :  3.16923e-09 Reference value :  3.19003e-09 Reference value :  3.19443e-09 Reference value :  3.22643e-09 Reference value :  3.23313e-09 Reference value :  3.23393e-09 Reference value :  3.23433e-09 Reference value :  3.23453e-09 Reference value :  3.29863e-09 Reference value :  3.38793e-09 Reference value :  3.41013e-09 Reference value :  3.41033e-09 Reference value :  3.41043e-09 Reference value :  3.44873e-09 Reference value :  3.44913e-09 Reference value :  3.49583e-09 Reference value :  3.51713e-09 Reference value :  3.56413e-09 Reference value :  3.56863e-09 Reference value :  3.60913e-09 Reference value :  3.60933e-09 Reference value :  3.65563e-09 Reference value :  3.66923e-09 Reference value :  3.68243e-09 Reference value :  3.68863e-09 Reference value :  3.72703e-09 Reference value :  3.72723e-09 Reference value :  3.77663e-09 Reference value :  3.77973e-09 Reference value :  3.77993e-09 Reference value :  3.78123e-09 Reference value :  3.78143e-09 Reference value :  3.78163e-09 Reference value :  3.78413e-09 Reference value :  3.78433e-09 Reference value :  3.78443e-09 Reference value :  3.78463e-09 Reference value :  3.78483e-09 Reference value :  3.79583e-09 Reference value :  3.79763e-09 Reference value :  3.84423e-09 Reference value :  3.87433e-09 Reference value :  3.88473e-09 Reference value :  3.88483e-09 Reference value :  3.88503e-09 Reference value :  3.88513e-09 Reference value :  3.88533e-09 Reference value :  3.88553e-09 Reference value :  3.88573e-09 Reference value :  3.88583e-09 Reference value :  3.88603e-09 Reference value :  3.88623e-09 Reference value :  3.88883e-09 Reference value :  3.95983e-09 Reference value :  4.13313e-09 Reference value :  4.32913e-09 Reference value :  4.51783e-09 Reference value :  4.70533e-09 Reference value :  4.86933e-09 Reference value :  4.98273e-09
No. of Data Rows : 50008
Note: Simulation executed from .control section 


Note: No compatibility mode selected!


Circuit: ** sch_path: /home/bmott/tt_relative_path_test/xsch/tb/ringosc/ringosc_tb_mc.sch

Doing analysis at TEMP = 27.000000 and TNOM = 27.000000

Using SPARSE 1.3 as Direct Linear Solver

Initial Transient Solution
--------------------------

Node                                   Voltage
----                                   -------
x1.net1                               0.813455
out                                   0.854132
net1                                       1.8
x1.net2                               0.846532
v1#branch                          -5.0767e-05

 Reference value :  0.00000e+00 Reference value :  2.27528e-10 Reference value :  5.66528e-10 Reference value :  8.45128e-10 Reference value :  1.14963e-09 Reference value :  1.44443e-09 Reference value :  1.71623e-09 Reference value :  1.98253e-09 Reference value :  2.22783e-09 Reference value :  2.47463e-09 Reference value :  2.72243e-09 Reference value :  2.96003e-09 Reference value :  3.18603e-09 Reference value :  3.39383e-09 Reference value :  3.62473e-09 Reference value :  3.84983e-09 Reference value :  4.05333e-09 Reference value :  4.27973e-09 Reference value :  4.45803e-09 Reference value :  4.63043e-09 Reference value :  4.83763e-09
No. of Data Rows : 50008
Note: Simulation executed from .control section 

