
Note: No compatibility mode selected!


Circuit: ** sch_path: /home/bmott/tt_relative_path_test/xsch/tb/ringosc/ringosc_tb_mc.sch

Doing analysis at TEMP = 27.000000 and TNOM = 27.000000

Using SPARSE 1.3 as Direct Linear Solver

Initial Transient Solution
--------------------------

Node                                   Voltage
----                                   -------
x1.net1                               0.840745
out                                   0.840275
net1                                       1.8
x1.net2                               0.816005
v1#branch                         -5.17949e-05

 Reference value :  0.00000e+00 Reference value :  2.00000e-15 Reference value :  8.00000e-15 Reference value :  3.20000e-14 Reference value :  1.28000e-13 Reference value :  4.28000e-13 Reference value :  7.28000e-13 Reference value :  9.28000e-13 Reference value :  1.12800e-12 Reference value :  1.32800e-12 Reference value :  1.52800e-12 Reference value :  1.72800e-12 Reference value :  8.52800e-12 Reference value :  2.11280e-11 Reference value :  2.13280e-11 Reference value :  2.15280e-11 Reference value :  2.16280e-11 Reference value :  2.18280e-11 Reference value :  1.61828e-10 Reference value :  3.22028e-10 Reference value :  4.55328e-10 Reference value :  6.40228e-10 Reference value :  8.19628e-10 Reference value :  9.90528e-10 Reference value :  1.07053e-09 Reference value :  1.11993e-09 Reference value :  1.20083e-09 Reference value :  1.31703e-09 Reference value :  1.41523e-09 Reference value :  1.46053e-09 Reference value :  1.46073e-09 Reference value :  1.62123e-09 Reference value :  1.73023e-09 Reference value :  1.82113e-09 Reference value :  1.94593e-09 Reference value :  2.04303e-09 Reference value :  2.17573e-09 Reference value :  2.30643e-09 Reference value :  2.38323e-09 Reference value :  2.54293e-09 Reference value :  2.69303e-09 Reference value :  2.83473e-09 Reference value :  2.87723e-09 Reference value :  3.00713e-09 Reference value :  3.11913e-09 Reference value :  3.23513e-09 Reference value :  3.36733e-09 Reference value :  3.46463e-09 Reference value :  3.55033e-09 Reference value :  3.58403e-09 Reference value :  3.58413e-09 Reference value :  3.58423e-09 Reference value :  3.58443e-09 Reference value :  3.58463e-09 Reference value :  3.58483e-09 Reference value :  3.58503e-09 Reference value :  3.58523e-09 Reference value :  3.58543e-09 Reference value :  3.58553e-09 Reference value :  3.62683e-09 Reference value :  3.65633e-09 Reference value :  3.65653e-09 Reference value :  3.65673e-09 Reference value :  3.65693e-09 Reference value :  3.65713e-09 Reference value :  3.65733e-09 Reference value :  3.66623e-09 Reference value :  3.66853e-09 Reference value :  3.66883e-09 Reference value :  3.66983e-09 Reference value :  3.69083e-09 Reference value :  3.69103e-09 Reference value :  3.69733e-09 Reference value :  3.69743e-09 Reference value :  3.69813e-09 Reference value :  3.70003e-09 Reference value :  3.70183e-09 Reference value :  3.70203e-09 Reference value :  3.70223e-09 Reference value :  3.70253e-09 Reference value :  3.70273e-09 Reference value :  3.70283e-09 Reference value :  3.70303e-09 Reference value :  3.70863e-09 Reference value :  3.70883e-09 Reference value :  3.70903e-09 Reference value :  3.72033e-09 Reference value :  3.72043e-09 Reference value :  3.72183e-09 Reference value :  3.73513e-09 Reference value :  3.78443e-09 Reference value :  3.84543e-09 Reference value :  3.93123e-09 Reference value :  3.95013e-09 Reference value :  4.01003e-09 Reference value :  4.10293e-09 Reference value :  4.16433e-09 Reference value :  4.21953e-09 Reference value :  4.29773e-09 Reference value :  4.40283e-09 Reference value :  4.54393e-09 Reference value :  4.69543e-09 Reference value :  4.81343e-09 Reference value :  4.93363e-09
No. of Data Rows : 50008
Note: Simulation executed from .control section 


Note: No compatibility mode selected!


Circuit: ** sch_path: /home/bmott/tt_relative_path_test/xsch/tb/ringosc/ringosc_tb_mc.sch

Doing analysis at TEMP = 27.000000 and TNOM = 27.000000

Using SPARSE 1.3 as Direct Linear Solver

Initial Transient Solution
--------------------------

Node                                   Voltage
----                                   -------
x1.net1                               0.812099
out                                   0.816539
net1                                       1.8
x1.net2                               0.865893
v1#branch                         -5.28353e-05

 Reference value :  0.00000e+00 Reference value :  3.64280e-11 Reference value :  1.09728e-10 Reference value :  1.16628e-10 Reference value :  1.17028e-10 Reference value :  1.17228e-10 Reference value :  1.17328e-10 Reference value :  1.18828e-10 Reference value :  1.20728e-10 Reference value :  1.21028e-10 Reference value :  1.21428e-10 Reference value :  1.21828e-10 Reference value :  1.23328e-10 Reference value :  1.26628e-10 Reference value :  1.39528e-10 Reference value :  1.42228e-10 Reference value :  1.42528e-10 Reference value :  1.42728e-10 Reference value :  1.52628e-10 Reference value :  1.53028e-10 Reference value :  1.54528e-10 Reference value :  1.63328e-10 Reference value :  1.82328e-10 Reference value :  2.18028e-10 Reference value :  2.33828e-10 Reference value :  2.56628e-10 Reference value :  2.64228e-10 Reference value :  2.73128e-10 Reference value :  2.73328e-10 Reference value :  2.73528e-10 Reference value :  2.73728e-10 Reference value :  2.73928e-10 Reference value :  2.74128e-10 Reference value :  2.74228e-10 Reference value :  2.74428e-10 Reference value :  2.74528e-10 Reference value :  2.74728e-10 Reference value :  2.74928e-10 Reference value :  2.75028e-10 Reference value :  2.75128e-10 Reference value :  3.42528e-10 Reference value :  3.98828e-10 Reference value :  3.99028e-10 Reference value :  3.99228e-10 Reference value :  3.99428e-10 Reference value :  3.99528e-10 Reference value :  4.54328e-10 Reference value :  4.54428e-10 Reference value :  4.54628e-10 Reference value :  4.80928e-10 Reference value :  5.62828e-10 Reference value :  7.14928e-10 Reference value :  8.29528e-10 Reference value :  9.69128e-10 Reference value :  1.14123e-09 Reference value :  1.30733e-09 Reference value :  1.45143e-09 Reference value :  1.61543e-09 Reference value :  1.77393e-09 Reference value :  1.85393e-09 Reference value :  1.96793e-09 Reference value :  2.07353e-09 Reference value :  2.17143e-09 Reference value :  2.20243e-09 Reference value :  2.34983e-09 Reference value :  2.40043e-09 Reference value :  2.41843e-09 Reference value :  2.41933e-09 Reference value :  2.45573e-09 Reference value :  2.49263e-09 Reference value :  2.57743e-09 Reference value :  2.67023e-09 Reference value :  2.83613e-09 Reference value :  2.98993e-09 Reference value :  3.04453e-09 Reference value :  3.16093e-09 Reference value :  3.21333e-09 Reference value :  3.28103e-09 Reference value :  3.31193e-09 Reference value :  3.33193e-09 Reference value :  3.33213e-09 Reference value :  3.34573e-09 Reference value :  3.35273e-09 Reference value :  3.38153e-09 Reference value :  3.38283e-09 Reference value :  3.38303e-09 Reference value :  3.38313e-09 Reference value :  3.38333e-09 Reference value :  3.38353e-09 Reference value :  3.38373e-09 Reference value :  3.38383e-09 Reference value :  3.38403e-09 Reference value :  3.38423e-09 Reference value :  3.39583e-09 Reference value :  3.39633e-09 Reference value :  3.42023e-09 Reference value :  3.42053e-09 Reference value :  3.42093e-09 Reference value :  3.42123e-09 Reference value :  3.42143e-09 Reference value :  3.42163e-09 Reference value :  3.42183e-09 Reference value :  3.42203e-09 Reference value :  3.42223e-09 Reference value :  3.42243e-09 Reference value :  3.42263e-09 Reference value :  3.42663e-09 Reference value :  3.42673e-09 Reference value :  3.46043e-09 Reference value :  3.47123e-09 Reference value :  3.47143e-09 Reference value :  3.48523e-09 Reference value :  3.48543e-09 Reference value :  3.48563e-09 Reference value :  3.48583e-09 Reference value :  3.48603e-09 Reference value :  3.48623e-09 Reference value :  3.48643e-09 Reference value :  3.48663e-09 Reference value :  3.50753e-09 Reference value :  3.71803e-09 Reference value :  3.90103e-09 Reference value :  4.05763e-09 Reference value :  4.23293e-09 Reference value :  4.37553e-09 Reference value :  4.53373e-09 Reference value :  4.75083e-09 Reference value :  4.90093e-09
No. of Data Rows : 50008
Note: Simulation executed from .control section 


Note: No compatibility mode selected!


Circuit: ** sch_path: /home/bmott/tt_relative_path_test/xsch/tb/ringosc/ringosc_tb_mc.sch

Doing analysis at TEMP = 27.000000 and TNOM = 27.000000

Using SPARSE 1.3 as Direct Linear Solver

Initial Transient Solution
--------------------------

Node                                   Voltage
----                                   -------
x1.net1                               0.837279
out                                    0.84702
net1                                       1.8
x1.net2                               0.853969
v1#branch                         -5.03926e-05

 Reference value :  0.00000e+00 Reference value :  1.31228e-10 Reference value :  3.13628e-10 Reference value :  5.37928e-10 Reference value :  6.82828e-10 Reference value :  8.84628e-10 Reference value :  1.07613e-09 Reference value :  1.22353e-09 Reference value :  1.38923e-09 Reference value :  1.58713e-09 Reference value :  1.80163e-09 Reference value :  2.02023e-09 Reference value :  2.23603e-09 Reference value :  2.44753e-09 Reference value :  2.62163e-09 Reference value :  2.67053e-09 Reference value :  2.67073e-09 Reference value :  2.76953e-09 Reference value :  2.79673e-09 Reference value :  2.84073e-09 Reference value :  2.92593e-09 Reference value :  3.01173e-09 Reference value :  3.04783e-09 Reference value :  3.12833e-09 Reference value :  3.19973e-09 Reference value :  3.23003e-09 Reference value :  3.27083e-09 Reference value :  3.47283e-09 Reference value :  3.68273e-09 Reference value :  3.84353e-09 Reference value :  4.00523e-09 Reference value :  4.19203e-09 Reference value :  4.34483e-09 Reference value :  4.53563e-09 Reference value :  4.59903e-09 Reference value :  4.64013e-09 Reference value :  4.73343e-09 Reference value :  4.78723e-09 Reference value :  4.81043e-09 Reference value :  4.86883e-09 Reference value :  4.92703e-09 Reference value :  4.97223e-09 Reference value :  4.97243e-09
No. of Data Rows : 50008
Note: Simulation executed from .control section 


Note: No compatibility mode selected!


Circuit: ** sch_path: /home/bmott/tt_relative_path_test/xsch/tb/ringosc/ringosc_tb_mc.sch

Doing analysis at TEMP = 27.000000 and TNOM = 27.000000

Using SPARSE 1.3 as Direct Linear Solver

Initial Transient Solution
--------------------------

Node                                   Voltage
----                                   -------
x1.net1                               0.816564
out                                   0.834684
net1                                       1.8
x1.net2                                0.84678
v1#branch                         -5.23006e-05

 Reference value :  0.00000e+00 Reference value :  2.15280e-11 Reference value :  2.16280e-11 Reference value :  2.18280e-11 Reference value :  2.20280e-11 Reference value :  2.22280e-11 Reference value :  2.24280e-11 Reference value :  2.26280e-11 Reference value :  2.28280e-11 Reference value :  2.30280e-11 Reference value :  2.32280e-11 Reference value :  2.34280e-11 Reference value :  2.36280e-11 Reference value :  7.69280e-11 Reference value :  2.58128e-10 Reference value :  4.79428e-10 Reference value :  6.52128e-10 Reference value :  8.83728e-10 Reference value :  1.06103e-09 Reference value :  1.27613e-09 Reference value :  1.47453e-09 Reference value :  1.65843e-09 Reference value :  1.85643e-09 Reference value :  2.03013e-09 Reference value :  2.19283e-09 Reference value :  2.37703e-09 Reference value :  2.56513e-09 Reference value :  2.75713e-09 Reference value :  2.88503e-09 Reference value :  3.00343e-09 Reference value :  3.14313e-09 Reference value :  3.28593e-09 Reference value :  3.45783e-09 Reference value :  3.65043e-09 Reference value :  3.81813e-09 Reference value :  4.02403e-09 Reference value :  4.17473e-09 Reference value :  4.36713e-09 Reference value :  4.53973e-09 Reference value :  4.71093e-09 Reference value :  4.90853e-09
No. of Data Rows : 50008
Note: Simulation executed from .control section 


Note: No compatibility mode selected!


Circuit: ** sch_path: /home/bmott/tt_relative_path_test/xsch/tb/ringosc/ringosc_tb_mc.sch

Doing analysis at TEMP = 27.000000 and TNOM = 27.000000

Using SPARSE 1.3 as Direct Linear Solver

Initial Transient Solution
--------------------------

Node                                   Voltage
----                                   -------
x1.net1                               0.841282
out                                   0.828783
net1                                       1.8
x1.net2                               0.813966
v1#branch                         -5.47644e-05

 Reference value :  0.00000e+00 Reference value :  1.54928e-10 Reference value :  3.46328e-10 Reference value :  5.49428e-10 Reference value :  7.85328e-10 Reference value :  1.01933e-09 Reference value :  1.21983e-09 Reference value :  1.44193e-09 Reference value :  1.65333e-09 Reference value :  1.84523e-09 Reference value :  2.03453e-09 Reference value :  2.25523e-09 Reference value :  2.43043e-09 Reference value :  2.60923e-09 Reference value :  2.79103e-09 Reference value :  2.93403e-09 Reference value :  3.12983e-09 Reference value :  3.36953e-09 Reference value :  3.60433e-09 Reference value :  3.72853e-09 Reference value :  3.95503e-09 Reference value :  4.19563e-09 Reference value :  4.43983e-09 Reference value :  4.66123e-09 Reference value :  4.66143e-09 Reference value :  4.74043e-09 Reference value :  4.85223e-09 Reference value :  4.91343e-09 Reference value :  4.97023e-09 Reference value :  4.97043e-09 Reference value :  4.97063e-09 Reference value :  4.97083e-09 Reference value :  4.97103e-09 Reference value :  4.97123e-09 Reference value :  4.97133e-09 Reference value :  4.97153e-09
No. of Data Rows : 50008
Note: Simulation executed from .control section 


Note: No compatibility mode selected!


Circuit: ** sch_path: /home/bmott/tt_relative_path_test/xsch/tb/ringosc/ringosc_tb_mc.sch

Doing analysis at TEMP = 27.000000 and TNOM = 27.000000

Using SPARSE 1.3 as Direct Linear Solver

Initial Transient Solution
--------------------------

Node                                   Voltage
----                                   -------
x1.net1                               0.866019
out                                   0.817302
net1                                       1.8
x1.net2                                0.81909
v1#branch                         -5.26196e-05

 Reference value :  0.00000e+00 Reference value :  2.00000e-15 Reference value :  3.62800e-12 Reference value :  2.99280e-11 Reference value :  3.01280e-11 Reference value :  3.03280e-11 Reference value :  3.04280e-11 Reference value :  4.08280e-11 Reference value :  7.07280e-11 Reference value :  7.79280e-11 Reference value :  1.18228e-10 Reference value :  1.45328e-10 Reference value :  1.49628e-10 Reference value :  1.70228e-10 Reference value :  1.81028e-10 Reference value :  3.23628e-10 Reference value :  4.09128e-10 Reference value :  4.09228e-10 Reference value :  5.91928e-10 Reference value :  8.05028e-10 Reference value :  1.07293e-09 Reference value :  1.26693e-09 Reference value :  1.50513e-09 Reference value :  1.72813e-09 Reference value :  1.99013e-09 Reference value :  2.20373e-09 Reference value :  2.37783e-09 Reference value :  2.60843e-09 Reference value :  2.78963e-09 Reference value :  3.04193e-09 Reference value :  3.26963e-09 Reference value :  3.49623e-09 Reference value :  3.69953e-09 Reference value :  3.89423e-09 Reference value :  4.10913e-09 Reference value :  4.29023e-09 Reference value :  4.47033e-09 Reference value :  4.69003e-09 Reference value :  4.86203e-09
No. of Data Rows : 50008
Note: Simulation executed from .control section 


Note: No compatibility mode selected!


Circuit: ** sch_path: /home/bmott/tt_relative_path_test/xsch/tb/ringosc/ringosc_tb_mc.sch

Doing analysis at TEMP = 27.000000 and TNOM = 27.000000

Using SPARSE 1.3 as Direct Linear Solver

Initial Transient Solution
--------------------------

Node                                   Voltage
----                                   -------
x1.net1                               0.843429
out                                   0.824792
net1                                       1.8
x1.net2                               0.841195
v1#branch                         -4.95824e-05

 Reference value :  0.00000e+00 Reference value :  1.55628e-10 Reference value :  3.47128e-10 Reference value :  5.46328e-10 Reference value :  7.51628e-10 Reference value :  9.33728e-10 Reference value :  1.10283e-09 Reference value :  1.29413e-09 Reference value :  1.45893e-09 Reference value :  1.66113e-09 Reference value :  1.85763e-09 Reference value :  2.02563e-09 Reference value :  2.21473e-09 Reference value :  2.41353e-09 Reference value :  2.59083e-09 Reference value :  2.73613e-09 Reference value :  2.93463e-09 Reference value :  3.12803e-09 Reference value :  3.31183e-09 Reference value :  3.49783e-09 Reference value :  3.64553e-09 Reference value :  3.78673e-09 Reference value :  3.95233e-09 Reference value :  4.11193e-09 Reference value :  4.27933e-09 Reference value :  4.45363e-09 Reference value :  4.63293e-09 Reference value :  4.80993e-09 Reference value :  4.98523e-09
No. of Data Rows : 50008
Note: Simulation executed from .control section 


Note: No compatibility mode selected!


Circuit: ** sch_path: /home/bmott/tt_relative_path_test/xsch/tb/ringosc/ringosc_tb_mc.sch

Doing analysis at TEMP = 27.000000 and TNOM = 27.000000

Using SPARSE 1.3 as Direct Linear Solver

Initial Transient Solution
--------------------------

Node                                   Voltage
----                                   -------
x1.net1                               0.832561
out                                   0.853511
net1                                       1.8
x1.net2                               0.844025
v1#branch                         -4.89228e-05

 Reference value :  0.00000e+00 Reference value :  1.58028e-10 Reference value :  3.60528e-10 Reference value :  4.95028e-10 Reference value :  6.64828e-10 Reference value :  8.20928e-10 Reference value :  1.01523e-09 Reference value :  1.20103e-09 Reference value :  1.39873e-09 Reference value :  1.54963e-09 Reference value :  1.71143e-09 Reference value :  1.88633e-09 Reference value :  2.05123e-09 Reference value :  2.21333e-09 Reference value :  2.39653e-09 Reference value :  2.54623e-09 Reference value :  2.68903e-09 Reference value :  2.85513e-09 Reference value :  3.01853e-09 Reference value :  3.16663e-09 Reference value :  3.32533e-09 Reference value :  3.47313e-09 Reference value :  3.64393e-09 Reference value :  3.79013e-09 Reference value :  3.93313e-09 Reference value :  4.11453e-09 Reference value :  4.30133e-09 Reference value :  4.46373e-09 Reference value :  4.64453e-09 Reference value :  4.82433e-09 Reference value :  4.98543e-09
No. of Data Rows : 50008
Note: Simulation executed from .control section 


Note: No compatibility mode selected!


Circuit: ** sch_path: /home/bmott/tt_relative_path_test/xsch/tb/ringosc/ringosc_tb_mc.sch

Doing analysis at TEMP = 27.000000 and TNOM = 27.000000

Using SPARSE 1.3 as Direct Linear Solver

Initial Transient Solution
--------------------------

Node                                   Voltage
----                                   -------
x1.net1                               0.837044
out                                   0.849941
net1                                       1.8
x1.net2                               0.823495
v1#branch                         -5.18309e-05

 Reference value :  0.00000e+00 Reference value :  1.86928e-10 Reference value :  3.80328e-10 Reference value :  5.89728e-10 Reference value :  7.71928e-10 Reference value :  9.60828e-10 Reference value :  1.14413e-09 Reference value :  1.32413e-09 Reference value :  1.52693e-09 Reference value :  1.72103e-09 Reference value :  1.91613e-09 Reference value :  2.04153e-09 Reference value :  2.24523e-09 Reference value :  2.45233e-09 Reference value :  2.60793e-09 Reference value :  2.75493e-09 Reference value :  2.90603e-09 Reference value :  3.03643e-09 Reference value :  3.20673e-09 Reference value :  3.37463e-09 Reference value :  3.54163e-09 Reference value :  3.67833e-09 Reference value :  3.82413e-09 Reference value :  3.97653e-09 Reference value :  4.14393e-09 Reference value :  4.29283e-09 Reference value :  4.36063e-09 Reference value :  4.49423e-09 Reference value :  4.62383e-09 Reference value :  4.77103e-09 Reference value :  4.89763e-09 Reference value :  4.96793e-09
No. of Data Rows : 50008
Note: Simulation executed from .control section 


Note: No compatibility mode selected!


Circuit: ** sch_path: /home/bmott/tt_relative_path_test/xsch/tb/ringosc/ringosc_tb_mc.sch

Doing analysis at TEMP = 27.000000 and TNOM = 27.000000

Using SPARSE 1.3 as Direct Linear Solver

Initial Transient Solution
--------------------------

Node                                   Voltage
----                                   -------
x1.net1                               0.848369
out                                   0.833408
net1                                       1.8
x1.net2                               0.839639
v1#branch                         -5.23271e-05

 Reference value :  0.00000e+00 Reference value :  2.00000e-15 Reference value :  7.76280e-11 Reference value :  2.21028e-10 Reference value :  3.46128e-10 Reference value :  5.00728e-10 Reference value :  6.72028e-10 Reference value :  8.35028e-10 Reference value :  9.95228e-10 Reference value :  1.14923e-09 Reference value :  1.34173e-09 Reference value :  1.49403e-09 Reference value :  1.65933e-09 Reference value :  1.83883e-09 Reference value :  2.01033e-09 Reference value :  2.18173e-09 Reference value :  2.36743e-09 Reference value :  2.50483e-09 Reference value :  2.69583e-09 Reference value :  2.88303e-09 Reference value :  3.07463e-09 Reference value :  3.27003e-09 Reference value :  3.44223e-09 Reference value :  3.60843e-09 Reference value :  3.79103e-09 Reference value :  3.98013e-09 Reference value :  4.16133e-09 Reference value :  4.34723e-09 Reference value :  4.51173e-09 Reference value :  4.65033e-09 Reference value :  4.81323e-09 Reference value :  4.96413e-09
No. of Data Rows : 50008
Note: Simulation executed from .control section 

